<routes>
  <vType vClass="bus"  id="bus"   personCapacity="50" latAlignment="center" tau="1.5" speedDev="0.1">
    <param key="has.rerouting.device" value="false"/>
  </vType>

  <vTypeDistribution id="ptw">
    <vType vClass="motorcycle" id="motorcycle"  personCapacity="2" latAlignment="arbitrary" lcPushy="1.0" minGapLat="0.5" probability="1.0" tau="1.5" speedDev="0.1"/>
  </vTypeDistribution>

  <vTypeDistribution id="passenger">
    <vType vClass="passenger"  id="passenger1"  personCapacity="4" latAlignment="center" sigma="0.25" probability=".20" tau="1.5" speedDev="0.1" guiShape="passenger"/>
    <vType vClass="passenger"  id="passenger2a" personCapacity="4" latAlignment="center" sigma="0.30" probability=".20" tau="1.5" speedDev="0.1" guiShape="passenger/sedan"/>
    <vType vClass="passenger"  id="passenger2b" personCapacity="4" latAlignment="center" sigma="0.35" probability=".20" tau="1.5" speedDev="0.1" guiShape="passenger/hatchback"/>
    <vType vClass="passenger"  id="passenger3"  personCapacity="6" latAlignment="center" sigma="0.40" probability=".20" tau="1.5" speedDev="0.1" guiShape="passenger/wagon"/>
    <vType vClass="passenger"  id="passenger4"  personCapacity="6" latAlignment="center" sigma="0.50" probability=".20" tau="1.5" speedDev="0.1" guiShape="passenger/van"/>
  </vTypeDistribution>

  <vTypeDistribution id="commercial">
    <vType vClass="delivery"   id="delivery"    containerCapacity="15" latAlignment="center" probability="1.0" tau="1.5" speedDev="0.1"/>
  </vTypeDistribution>
</routes>
