<?xml version="1.0" encoding="UTF-8"?>

<additional xmlns:xsi="http://www.w3.org/2001/XMLSchema-instance" xsi:noNamespaceSchemaLocation="http://sumo.dlr.de/xsd/additional_file.xsd">
    <parkingArea id="parkingArea_-1016_2_89" length="5" lane="-1016_1" friendlyPos="1" roadsideCapacity="15" startPos="30.0" endPos="70.0"/>
    <parkingArea id="parkingArea_-1130_1_20" length="5" lane="-1130_1" friendlyPos="1" roadsideCapacity="15" startPos="30.0" endPos="70.0"/>
    <parkingArea id="parkingArea_-11_1_78" length="5" lane="-11_1" friendlyPos="1" roadsideCapacity="15" startPos="30.0" endPos="70.0"/>
    <parkingArea id="parkingArea_-1239_1_90" length="5" lane="-1239_1" friendlyPos="1" roadsideCapacity="15" startPos="30.0" endPos="70.0"/>
    <parkingArea id="parkingArea_-1248_2_57" length="5" lane="-1248_1" friendlyPos="1" roadsideCapacity="15" startPos="30.0" endPos="70.0"/>
    <parkingArea id="parkingArea_-1259_1_15" length="5" lane="-1259_1" friendlyPos="1" roadsideCapacity="15" startPos="30.0" endPos="70.0"/>
    <parkingArea id="parkingArea_-1267_1_16" length="5" lane="-1267_1" friendlyPos="1" roadsideCapacity="15" startPos="30.0" endPos="70.0"/>
    <parkingArea id="parkingArea_-1489_2_111" length="5" lane="-1489_1" friendlyPos="1" roadsideCapacity="15" startPos="30.0" endPos="70.0"/>
    <parkingArea id="parkingArea_-1634_1_95" length="5" lane="-1634_1" friendlyPos="1" roadsideCapacity="15" startPos="30.0" endPos="70.0"/>
    <parkingArea id="parkingArea_-1762_1_52" length="5" lane="-1762_1" friendlyPos="1" roadsideCapacity="15" startPos="30.0" endPos="70.0"/>
    <parkingArea id="parkingArea_-1873_1_12" length="5" lane="-1873_1" friendlyPos="1" roadsideCapacity="15" startPos="30.0" endPos="70.0"/>
    <parkingArea id="parkingArea_-19_1_82" length="5" lane="-19_1" friendlyPos="1" roadsideCapacity="15" startPos="30.0" endPos="70.0"/>
    <parkingArea id="parkingArea_-2124_1_108" length="5" lane="-2124_1" friendlyPos="1" roadsideCapacity="15" startPos="30.0" endPos="70.0"/>
    <parkingArea id="parkingArea_-2227_1_107" length="5" lane="-2227_1" friendlyPos="1" roadsideCapacity="15" startPos="30.0" endPos="70.0"/>
    <parkingArea id="parkingArea_-2235_2_100" length="5" lane="-2235_1" friendlyPos="1" roadsideCapacity="15" startPos="30.0" endPos="70.0"/>
    <parkingArea id="parkingArea_-2340_1_9" length="5" lane="-2340_1" friendlyPos="1" roadsideCapacity="15" startPos="30.0" endPos="70.0"/>
    <parkingArea id="parkingArea_-2353_2_60" length="5" lane="-2353_1" friendlyPos="1" roadsideCapacity="15" startPos="30.0" endPos="70.0"/>
    <parkingArea id="parkingArea_-2370_1_93" length="5" lane="-2370_1" friendlyPos="1" roadsideCapacity="15" startPos="30.0" endPos="70.0"/>
    <parkingArea id="parkingArea_-2388_0_53" length="5" lane="-2388_1" friendlyPos="1" roadsideCapacity="15" startPos="30.0" endPos="70.0"/>
    <parkingArea id="parkingArea_-2396_2_51" length="5" lane="-2396_1" friendlyPos="1" roadsideCapacity="15" startPos="30.0" endPos="70.0"/>
    <parkingArea id="parkingArea_-23_2_80" length="5" lane="-23_1" friendlyPos="1" roadsideCapacity="15" startPos="30.0" endPos="70.0"/>
    <parkingArea id="parkingArea_-2503_2_34" length="5" lane="-2503_1" friendlyPos="1" roadsideCapacity="15" startPos="30.0" endPos="70.0"/>
    <parkingArea id="parkingArea_-2635_1_6" length="5" lane="-2635_1" friendlyPos="1" roadsideCapacity="15" startPos="30.0" endPos="70.0"/>
    <parkingArea id="parkingArea_-2738_1_61" length="5" lane="-2738_1" friendlyPos="1" roadsideCapacity="15" startPos="30.0" endPos="70.0"/>
    <parkingArea id="parkingArea_-2748_2_112" length="5" lane="-2748_1" friendlyPos="1" roadsideCapacity="15" startPos="30.0" endPos="70.0"/>
    <parkingArea id="parkingArea_-2964_2_102" length="5" lane="-2964_1" friendlyPos="1" roadsideCapacity="15" startPos="30.0" endPos="70.0"/>
    <parkingArea id="parkingArea_-2965_1_101" length="5" lane="-2965_1" friendlyPos="1" roadsideCapacity="15" startPos="30.0" endPos="70.0"/>
    <parkingArea id="parkingArea_-3072_2_97" length="5" lane="-3072_1" friendlyPos="1" roadsideCapacity="15" startPos="30.0" endPos="70.0"/>
    <parkingArea id="parkingArea_-3191_1_56" length="5" lane="-3191_1" friendlyPos="1" roadsideCapacity="15" startPos="30.0" endPos="70.0"/>
    <parkingArea id="parkingArea_-3302_1_54" length="5" lane="-3302_1" friendlyPos="1" roadsideCapacity="15" startPos="30.0" endPos="70.0"/>
    <parkingArea id="parkingArea_-372_1_76" length="5" lane="-372_1" friendlyPos="1" roadsideCapacity="15" startPos="30.0" endPos="70.0"/>
    <parkingArea id="parkingArea_-382_1_86" length="5" lane="-382_1" friendlyPos="1" roadsideCapacity="15" startPos="30.0" endPos="70.0"/>
    <parkingArea id="parkingArea_-386_1_87" length="5" lane="-386_1" friendlyPos="1" roadsideCapacity="15" startPos="30.0" endPos="70.0"/>
    <parkingArea id="parkingArea_-3903_1_55" length="5" lane="-3903_1" friendlyPos="1" roadsideCapacity="15" startPos="30.0" endPos="70.0"/>
    <parkingArea id="parkingArea_-4026_1_50" length="5" lane="-4026_1" friendlyPos="1" roadsideCapacity="15" startPos="30.0" endPos="70.0"/>
    <parkingArea id="parkingArea_-4254_1_32" length="5" lane="-4254_1" friendlyPos="1" roadsideCapacity="15" startPos="30.0" endPos="70.0"/>
    <parkingArea id="parkingArea_-4260_1_31" length="5" lane="-4260_1" friendlyPos="1" roadsideCapacity="15" startPos="30.0" endPos="70.0"/>
    <parkingArea id="parkingArea_-4275_1_36" length="5" lane="-4275_1" friendlyPos="1" roadsideCapacity="15" startPos="30.0" endPos="70.0"/>
    <parkingArea id="parkingArea_-4279_1_40" length="5" lane="-4279_1" friendlyPos="1" roadsideCapacity="15" startPos="30.0" endPos="70.0"/>
    <parkingArea id="parkingArea_-43_1_75" length="5" lane="-43_1" friendlyPos="1" roadsideCapacity="15" startPos="30.0" endPos="70.0"/>
    <parkingArea id="parkingArea_-4531_2_103" length="5" lane="-4531_1" friendlyPos="1" roadsideCapacity="15" startPos="30.0" endPos="70.0"/>
    <parkingArea id="parkingArea_-4652_1_70" length="5" lane="-4652_1" friendlyPos="1" roadsideCapacity="15" startPos="30.0" endPos="70.0"/>
    <parkingArea id="parkingArea_-4672_2_65" length="5" lane="-4672_1" friendlyPos="1" roadsideCapacity="15" startPos="30.0" endPos="70.0"/>
    <parkingArea id="parkingArea_-4794_2_45" length="5" lane="-4794_1" friendlyPos="1" roadsideCapacity="15" startPos="30.0" endPos="70.0"/>
    <parkingArea id="parkingArea_-4808_1_47" length="5" lane="-4808_1" friendlyPos="1" roadsideCapacity="15" startPos="30.0" endPos="70.0"/>
    <parkingArea id="parkingArea_-4920_1_24" length="5" lane="-4920_1" friendlyPos="1" roadsideCapacity="15" startPos="30.0" endPos="70.0"/>
    <parkingArea id="parkingArea_-4948_1_30" length="5" lane="-4948_1" friendlyPos="1" roadsideCapacity="15" startPos="30.0" endPos="70.0"/>
    <parkingArea id="parkingArea_-5052_1_39" length="5" lane="-5052_1" friendlyPos="1" roadsideCapacity="15" startPos="30.0" endPos="70.0"/>
    <parkingArea id="parkingArea_-5398_1_119" length="5" lane="-5398_1" friendlyPos="1" roadsideCapacity="15" startPos="30.0" endPos="70.0"/>
    <parkingArea id="parkingArea_-5506_1_118" length="5" lane="-5506_1" friendlyPos="1" roadsideCapacity="15" startPos="30.0" endPos="70.0"/>
    <parkingArea id="parkingArea_-5510_1_117" length="5" lane="-5510_1" friendlyPos="1" roadsideCapacity="15" startPos="30.0" endPos="70.0"/>
    <parkingArea id="parkingArea_-5514_2_104" length="5" lane="-5514_1" friendlyPos="1" roadsideCapacity="15" startPos="30.0" endPos="70.0"/>
    <parkingArea id="parkingArea_-5762_2_73" length="5" lane="-5762_1" friendlyPos="1" roadsideCapacity="15" startPos="30.0" endPos="70.0"/>
    <parkingArea id="parkingArea_-5781_2_69" length="5" lane="-5781_1" friendlyPos="1" roadsideCapacity="15" startPos="30.0" endPos="70.0"/>
    <parkingArea id="parkingArea_-5787_1_44" length="5" lane="-5787_1" friendlyPos="1" roadsideCapacity="15" startPos="30.0" endPos="70.0"/>
    <parkingArea id="parkingArea_-5903_2_49" length="5" lane="-5903_1" friendlyPos="1" roadsideCapacity="15" startPos="30.0" endPos="70.0"/>
    <parkingArea id="parkingArea_-5904_2_46" length="5" lane="-5904_1" friendlyPos="1" roadsideCapacity="15" startPos="30.0" endPos="70.0"/>
    <parkingArea id="parkingArea_-5_0_79" length="5" lane="-5_1" friendlyPos="1" roadsideCapacity="15" startPos="30.0" endPos="70.0"/>
    <parkingArea id="parkingArea_-6036_1_28" length="5" lane="-6036_1" friendlyPos="1" roadsideCapacity="15" startPos="30.0" endPos="70.0"/>
    <parkingArea id="parkingArea_-6045_1_21" length="5" lane="-6045_1" friendlyPos="1" roadsideCapacity="15" startPos="30.0" endPos="70.0"/>
    <parkingArea id="parkingArea_-6049_1_22" length="5" lane="-6049_1" friendlyPos="1" roadsideCapacity="15" startPos="30.0" endPos="70.0"/>
    <parkingArea id="parkingArea_-6152_1_29" length="5" lane="-6152_1" friendlyPos="1" roadsideCapacity="15" startPos="30.0" endPos="70.0"/>
    <parkingArea id="parkingArea_-6255_1_38" length="5" lane="-6255_1" friendlyPos="1" roadsideCapacity="15" startPos="30.0" endPos="70.0"/>
    <parkingArea id="parkingArea_-6373_1_1" length="5" lane="-6373_1" friendlyPos="1" roadsideCapacity="15" startPos="30.0" endPos="70.0"/>
    <parkingArea id="parkingArea_-6377_1_0" length="5" lane="-6377_1" friendlyPos="1" roadsideCapacity="15" startPos="30.0" endPos="70.0"/>
    <parkingArea id="parkingArea_-6590_1_113" length="5" lane="-6590_1" friendlyPos="1" roadsideCapacity="15" startPos="30.0" endPos="70.0"/>
    <parkingArea id="parkingArea_-6728_1_116" length="5" lane="-6728_1" friendlyPos="1" roadsideCapacity="15" startPos="30.0" endPos="70.0"/>
    <parkingArea id="parkingArea_-6729_1_99" length="5" lane="-6729_1" friendlyPos="1" roadsideCapacity="15" startPos="30.0" endPos="70.0"/>
    <parkingArea id="parkingArea_-6733_1_106" length="5" lane="-6733_1" friendlyPos="1" roadsideCapacity="15" startPos="30.0" endPos="70.0"/>
    <parkingArea id="parkingArea_-7022_1_68" length="5" lane="-7022_1" friendlyPos="1" roadsideCapacity="15" startPos="30.0" endPos="70.0"/>
    <parkingArea id="parkingArea_-7046_1_43" length="5" lane="-7046_1" friendlyPos="1" roadsideCapacity="15" startPos="30.0" endPos="70.0"/>
    <parkingArea id="parkingArea_-7264_1_48" length="5" lane="-7264_1" friendlyPos="1" roadsideCapacity="15" startPos="30.0" endPos="70.0"/>
    <parkingArea id="parkingArea_-752_1_84" length="5" lane="-752_1" friendlyPos="1" roadsideCapacity="15" startPos="30.0" endPos="70.0"/>
    <parkingArea id="parkingArea_-754_1_18" length="5" lane="-754_1" friendlyPos="1" roadsideCapacity="15" startPos="30.0" endPos="70.0"/>
    <parkingArea id="parkingArea_-906_1_14" length="5" lane="-906_1" friendlyPos="1" roadsideCapacity="15" startPos="30.0" endPos="70.0"/>
    <parkingArea id="parkingArea_1130_1_19" length="5" lane="1130_1" friendlyPos="1" roadsideCapacity="15" startPos="30.0" endPos="70.0"/>
    <parkingArea id="parkingArea_1248_1_58" length="5" lane="1248_1" friendlyPos="1" roadsideCapacity="15" startPos="30.0" endPos="70.0"/>
    <parkingArea id="parkingArea_1498_1_109" length="5" lane="1498_1" friendlyPos="1" roadsideCapacity="15" startPos="30.0" endPos="70.0"/>
    <parkingArea id="parkingArea_1750_0_91" length="5" lane="1750_1" friendlyPos="1" roadsideCapacity="15" startPos="30.0" endPos="70.0"/>
    <parkingArea id="parkingArea_1873_1_13" length="5" lane="1873_1" friendlyPos="1" roadsideCapacity="15" startPos="30.0" endPos="70.0"/>
    <parkingArea id="parkingArea_2338_1_17" length="5" lane="2338_1" friendlyPos="1" roadsideCapacity="15" startPos="30.0" endPos="70.0"/>
    <parkingArea id="parkingArea_2345_2_96" length="5" lane="2345_1" friendlyPos="1" roadsideCapacity="15" startPos="30.0" endPos="70.0"/>
    <parkingArea id="parkingArea_2370_2_92" length="5" lane="2370_1" friendlyPos="1" roadsideCapacity="15" startPos="30.0" endPos="70.0"/>
    <parkingArea id="parkingArea_2372_1_59" length="5" lane="2372_1" friendlyPos="1" roadsideCapacity="15" startPos="30.0" endPos="70.0"/>
    <parkingArea id="parkingArea_23_0_81" length="5" lane="23_1" friendlyPos="1" roadsideCapacity="15" startPos="30.0" endPos="70.0"/>
    <parkingArea id="parkingArea_2503_1_35" length="5" lane="2503_1" friendlyPos="1" roadsideCapacity="15" startPos="30.0" endPos="70.0"/>
    <parkingArea id="parkingArea_2625_1_5" length="5" lane="2625_1" friendlyPos="1" roadsideCapacity="15" startPos="30.0" endPos="70.0"/>
    <parkingArea id="parkingArea_268_0_83" length="5" lane="268_1" friendlyPos="1" roadsideCapacity="15" startPos="30.0" endPos="70.0"/>
    <parkingArea id="parkingArea_2858_2_110" length="5" lane="2858_1" friendlyPos="1" roadsideCapacity="15" startPos="30.0" endPos="70.0"/>
    <parkingArea id="parkingArea_3087_2_62" length="5" lane="3087_1" friendlyPos="1" roadsideCapacity="15" startPos="30.0" endPos="70.0"/>
    <parkingArea id="parkingArea_3518_1_33" length="5" lane="3518_1" friendlyPos="1" roadsideCapacity="15" startPos="30.0" endPos="70.0"/>
    <parkingArea id="parkingArea_3543_1_4" length="5" lane="3543_1" friendlyPos="1" roadsideCapacity="15" startPos="30.0" endPos="70.0"/>
    <parkingArea id="parkingArea_3554_1_7" length="5" lane="3554_1" friendlyPos="1" roadsideCapacity="15" startPos="30.0" endPos="70.0"/>
    <parkingArea id="parkingArea_3557_0_114" length="5" lane="3557_1" friendlyPos="1" roadsideCapacity="15" startPos="30.0" endPos="70.0"/>
    <parkingArea id="parkingArea_379_0_74" length="5" lane="379_1" friendlyPos="1" roadsideCapacity="15" startPos="30.0" endPos="70.0"/>
    <parkingArea id="parkingArea_402_1_85" length="5" lane="402_1" friendlyPos="1" roadsideCapacity="15" startPos="30.0" endPos="70.0"/>
    <parkingArea id="parkingArea_41_1_77" length="5" lane="41_1" friendlyPos="1" roadsideCapacity="15" startPos="30.0" endPos="70.0"/>
    <parkingArea id="parkingArea_4291_2_37" length="5" lane="4291_1" friendlyPos="1" roadsideCapacity="15" startPos="30.0" endPos="70.0"/>
    <parkingArea id="parkingArea_4297_1_3" length="5" lane="4297_1" friendlyPos="1" roadsideCapacity="15" startPos="30.0" endPos="70.0"/>
    <parkingArea id="parkingArea_4539_1_8" length="5" lane="4539_1" friendlyPos="1" roadsideCapacity="15" startPos="30.0" endPos="70.0"/>
    <parkingArea id="parkingArea_4646_2_98" length="5" lane="4646_1" friendlyPos="1" roadsideCapacity="15" startPos="30.0" endPos="70.0"/>
    <parkingArea id="parkingArea_4650_1_63" length="5" lane="4650_1" friendlyPos="1" roadsideCapacity="15" startPos="30.0" endPos="70.0"/>
    <parkingArea id="parkingArea_4664_1_71" length="5" lane="4664_1" friendlyPos="1" roadsideCapacity="15" startPos="30.0" endPos="70.0"/>
    <parkingArea id="parkingArea_4811_1_25" length="5" lane="4811_1" friendlyPos="1" roadsideCapacity="15" startPos="30.0" endPos="70.0"/>
    <parkingArea id="parkingArea_4817_1_26" length="5" lane="4817_1" friendlyPos="1" roadsideCapacity="15" startPos="30.0" endPos="70.0"/>
    <parkingArea id="parkingArea_5162_1_2" length="5" lane="5162_1" friendlyPos="1" roadsideCapacity="15" startPos="30.0" endPos="70.0"/>
    <parkingArea id="parkingArea_5517_2_105" length="5" lane="5517_1" friendlyPos="1" roadsideCapacity="15" startPos="30.0" endPos="70.0"/>
    <parkingArea id="parkingArea_5626_1_11" length="5" lane="5626_1" friendlyPos="1" roadsideCapacity="15" startPos="30.0" endPos="70.0"/>
    <parkingArea id="parkingArea_5650_1_10" length="5" lane="5650_1" friendlyPos="1" roadsideCapacity="15" startPos="30.0" endPos="70.0"/>
    <parkingArea id="parkingArea_5754_1_64" length="5" lane="5754_1" friendlyPos="1" roadsideCapacity="15" startPos="30.0" endPos="70.0"/>
    <parkingArea id="parkingArea_5763_2_72" length="5" lane="5763_1" friendlyPos="1" roadsideCapacity="15" startPos="30.0" endPos="70.0"/>
    <parkingArea id="parkingArea_5767_1_66" length="5" lane="5767_1" friendlyPos="1" roadsideCapacity="15" startPos="30.0" endPos="70.0"/>
    <parkingArea id="parkingArea_5791_1_41" length="5" lane="5791_1" friendlyPos="1" roadsideCapacity="15" startPos="30.0" endPos="70.0"/>
    <parkingArea id="parkingArea_6040_1_27" length="5" lane="6040_1" friendlyPos="1" roadsideCapacity="15" startPos="30.0" endPos="70.0"/>
    <parkingArea id="parkingArea_6049_1_23" length="5" lane="6049_1" friendlyPos="1" roadsideCapacity="15" startPos="30.0" endPos="70.0"/>
    <parkingArea id="parkingArea_648_1_88" length="5" lane="648_1" friendlyPos="1" roadsideCapacity="15" startPos="30.0" endPos="70.0"/>
    <parkingArea id="parkingArea_6598_1_120" length="5" lane="6598_1" friendlyPos="1" roadsideCapacity="15" startPos="30.0" endPos="70.0"/>
    <parkingArea id="parkingArea_6728_2_115" length="5" lane="6728_1" friendlyPos="1" roadsideCapacity="15" startPos="30.0" endPos="70.0"/>
    <parkingArea id="parkingArea_6919_1_67" length="5" lane="6919_1" friendlyPos="1" roadsideCapacity="15" startPos="30.0" endPos="70.0"/>
    <parkingArea id="parkingArea_7047_2_42" length="5" lane="7047_1" friendlyPos="1" roadsideCapacity="15" startPos="30.0" endPos="70.0"/>
    <parkingArea id="parkingArea_780_1_94" length="5" lane="780_1" friendlyPos="1" roadsideCapacity="15" startPos="30.0" endPos="70.0"/>
</additional>
