<?xml version="1.0" encoding="UTF-8"?>
<additional xmlns:xsi="http://www.w3.org/2001/XMLSchema-instance" xsi:noNamespaceSchemaLocation="http://sumo.dlr.de/xsd/additional_file.xsd"> 
    <rerouter id="parkingArea_-1016_2_89" edges="-1016">
        <interval begin="0.0" end="86400">
            <!-- in order of distance --> 
            <parkingAreaReroute id="parkingArea_-1016_2_89" visible="true"/> <!-- dist: 0.0 -->
            <parkingAreaReroute id="parkingArea_-386_1_87" visible="true"/> <!-- dist: 22.06875449964003 -->
            <parkingAreaReroute id="parkingArea_1498_1_109" visible="true"/> <!-- dist: 22.798588012958962 -->
            <parkingAreaReroute id="parkingArea_2858_2_110" visible="true"/> <!-- dist: 31.766997051194807 -->
            <parkingAreaReroute id="parkingArea_2370_2_92" visible="true"/> <!-- dist: 33.86675030191133 -->
            <parkingAreaReroute id="parkingArea_-1489_2_111" visible="true"/> <!-- dist: 35.01247176938173 -->
            <parkingAreaReroute id="parkingArea_402_1_85" visible="true"/> <!-- dist: 36.467602591792655 -->
            <parkingAreaReroute id="parkingArea_-1239_1_90" visible="true"/> <!-- dist: 36.81078287930514 -->
            <parkingAreaReroute id="parkingArea_-382_1_86" visible="true"/> <!-- dist: 39.71307730997958 -->
            <parkingAreaReroute id="parkingArea_648_1_88" visible="true"/> <!-- dist: 39.72027673402567 -->
            <parkingAreaReroute id="parkingArea_1750_0_91" visible="true"/> <!-- dist: 40.05625759749206 -->
        </interval>
    </rerouter>
    <rerouter id="parkingArea_-1130_1_20" edges="-1130">
        <interval begin="0.0" end="86400">
            <!-- in order of distance --> 
            <parkingAreaReroute id="parkingArea_-1130_1_20" visible="true"/> <!-- dist: 0.0 -->
            <parkingAreaReroute id="parkingArea_1130_1_19" visible="true"/> <!-- dist: 15.104866021677168 -->
            <parkingAreaReroute id="parkingArea_-752_1_84" visible="true"/> <!-- dist: 15.59916396688265 -->
            <parkingAreaReroute id="parkingArea_2338_1_17" visible="true"/> <!-- dist: 24.81920620543905 -->
            <parkingAreaReroute id="parkingArea_780_1_94" visible="true"/> <!-- dist: 25.061870950323975 -->
            <parkingAreaReroute id="parkingArea_-382_1_86" visible="true"/> <!-- dist: 29.998012059035275 -->
            <parkingAreaReroute id="parkingArea_-2340_1_9" visible="true"/> <!-- dist: 32.856833551415754 -->
            <parkingAreaReroute id="parkingArea_-754_1_18" visible="true"/> <!-- dist: 32.978256950402866 -->
            <parkingAreaReroute id="parkingArea_402_1_85" visible="true"/> <!-- dist: 33.2434867772222 -->
            <parkingAreaReroute id="parkingArea_4539_1_8" visible="true"/> <!-- dist: 37.607113201048406 -->
            <parkingAreaReroute id="parkingArea_2345_2_96" visible="true"/> <!-- dist: 39.460719042476605 -->
        </interval>
    </rerouter>
    <rerouter id="parkingArea_-11_1_78" edges="-11">
        <interval begin="0.0" end="86400">
            <!-- in order of distance --> 
            <parkingAreaReroute id="parkingArea_-11_1_78" visible="true"/> <!-- dist: 0.0 -->
            <parkingAreaReroute id="parkingArea_41_1_77" visible="true"/> <!-- dist: 23.80429006775348 -->
            <parkingAreaReroute id="parkingArea_-5_0_79" visible="true"/> <!-- dist: 23.804290067753485 -->
            <parkingAreaReroute id="parkingArea_23_0_81" visible="true"/> <!-- dist: 24.81920620543905 -->
            <parkingAreaReroute id="parkingArea_-23_2_80" visible="true"/> <!-- dist: 32.53707737293808 -->
            <parkingAreaReroute id="parkingArea_-19_1_82" visible="true"/> <!-- dist: 32.856833551415754 -->
            <parkingAreaReroute id="parkingArea_-43_1_75" visible="true"/> <!-- dist: 33.204473536946914 -->
            <parkingAreaReroute id="parkingArea_268_0_83" visible="true"/> <!-- dist: 38.31078287930514 -->
            <parkingAreaReroute id="parkingArea_402_1_85" visible="true"/> <!-- dist: 38.6611625908637 -->
            <parkingAreaReroute id="parkingArea_-382_1_86" visible="true"/> <!-- dist: 39.04781581667015 -->
            <parkingAreaReroute id="parkingArea_379_0_74" visible="true"/> <!-- dist: 39.4344690424766 -->
        </interval>
    </rerouter>
    <rerouter id="parkingArea_-1239_1_90" edges="-1239">
        <interval begin="0.0" end="86400">
            <!-- in order of distance --> 
            <parkingAreaReroute id="parkingArea_-1239_1_90" visible="true"/> <!-- dist: 0.0 -->
            <parkingAreaReroute id="parkingArea_-1248_2_57" visible="true"/> <!-- dist: 22.798588012958962 -->
            <parkingAreaReroute id="parkingArea_1750_0_91" visible="true"/> <!-- dist: 23.80702979378088 -->
            <parkingAreaReroute id="parkingArea_-372_1_76" visible="true"/> <!-- dist: 24.298588012958962 -->
            <parkingAreaReroute id="parkingArea_2372_1_59" visible="true"/> <!-- dist: 31.111358833228824 -->
            <parkingAreaReroute id="parkingArea_1248_1_58" visible="true"/> <!-- dist: 33.2434867772222 -->
            <parkingAreaReroute id="parkingArea_2370_2_92" visible="true"/> <!-- dist: 33.7880953085397 -->
            <parkingAreaReroute id="parkingArea_-2370_1_93" visible="true"/> <!-- dist: 41.74861287809304 -->
            <parkingAreaReroute id="parkingArea_3087_2_62" visible="true"/> <!-- dist: 44.31109875403516 -->
            <parkingAreaReroute id="parkingArea_-2353_2_60" visible="true"/> <!-- dist: 44.553833746194684 -->
            <parkingAreaReroute id="parkingArea_-5_0_79" visible="true"/> <!-- dist: 44.697751979841605 -->
        </interval>
    </rerouter>
    <rerouter id="parkingArea_-1248_2_57" edges="-1248">
        <interval begin="0.0" end="86400">
            <!-- in order of distance --> 
            <parkingAreaReroute id="parkingArea_-1248_2_57" visible="true"/> <!-- dist: 0.0 -->
            <parkingAreaReroute id="parkingArea_1248_1_58" visible="true"/> <!-- dist: 16.607605747704568 -->
            <parkingAreaReroute id="parkingArea_-372_1_76" visible="true"/> <!-- dist: 26.148967724517522 -->
            <parkingAreaReroute id="parkingArea_2372_1_59" visible="true"/> <!-- dist: 32.506453839857194 -->
            <parkingAreaReroute id="parkingArea_-1762_1_52" visible="true"/> <!-- dist: 33.26973677722221 -->
            <parkingAreaReroute id="parkingArea_-2396_2_51" visible="true"/> <!-- dist: 38.43494600431965 -->
            <parkingAreaReroute id="parkingArea_1750_0_91" visible="true"/> <!-- dist: 40.46916082329852 -->
            <parkingAreaReroute id="parkingArea_-2388_0_53" visible="true"/> <!-- dist: 42.73244376066353 -->
            <parkingAreaReroute id="parkingArea_-1239_1_90" visible="true"/> <!-- dist: 43.71463554148545 -->
            <parkingAreaReroute id="parkingArea_-4026_1_50" visible="true"/> <!-- dist: 45.22146682458951 -->
            <parkingAreaReroute id="parkingArea_-5_0_79" visible="true"/> <!-- dist: 46.548131691400165 -->
        </interval>
    </rerouter>
    <rerouter id="parkingArea_-1259_1_15" edges="-1259">
        <interval begin="0.0" end="86400">
            <!-- in order of distance --> 
            <parkingAreaReroute id="parkingArea_-1259_1_15" visible="true"/> <!-- dist: 0.0 -->
            <parkingAreaReroute id="parkingArea_-1267_1_16" visible="true"/> <!-- dist: 23.80702979378088 -->
            <parkingAreaReroute id="parkingArea_-1873_1_12" visible="true"/> <!-- dist: 23.80702979378088 -->
            <parkingAreaReroute id="parkingArea_-906_1_14" visible="true"/> <!-- dist: 27.544062731145893 -->
            <parkingAreaReroute id="parkingArea_3518_1_33" visible="true"/> <!-- dist: 31.498012059035275 -->
            <parkingAreaReroute id="parkingArea_379_0_74" visible="true"/> <!-- dist: 33.2697367772222 -->
            <parkingAreaReroute id="parkingArea_2503_1_35" visible="true"/> <!-- dist: 33.76129499640029 -->
            <parkingAreaReroute id="parkingArea_1873_1_13" visible="true"/> <!-- dist: 34.25192855804412 -->
            <parkingAreaReroute id="parkingArea_-43_1_75" visible="true"/> <!-- dist: 37.22368610511158 -->
            <parkingAreaReroute id="parkingArea_4291_2_37" visible="true"/> <!-- dist: 38.86767458603312 -->
            <parkingAreaReroute id="parkingArea_2625_1_5" visible="true"/> <!-- dist: 40.46916082329852 -->
        </interval>
    </rerouter>
    <rerouter id="parkingArea_-1267_1_16" edges="-1267">
        <interval begin="0.0" end="86400">
            <!-- in order of distance --> 
            <parkingAreaReroute id="parkingArea_-1267_1_16" visible="true"/> <!-- dist: 0.0 -->
            <parkingAreaReroute id="parkingArea_-1873_1_12" visible="true"/> <!-- dist: 20.56155507559395 -->
            <parkingAreaReroute id="parkingArea_-1259_1_15" visible="true"/> <!-- dist: 23.80702979378088 -->
            <parkingAreaReroute id="parkingArea_-906_1_14" visible="true"/> <!-- dist: 24.298588012958962 -->
            <parkingAreaReroute id="parkingArea_1873_1_13" visible="true"/> <!-- dist: 31.006453839857194 -->
            <parkingAreaReroute id="parkingArea_3518_1_33" visible="true"/> <!-- dist: 34.7434867772222 -->
            <parkingAreaReroute id="parkingArea_379_0_74" visible="true"/> <!-- dist: 34.7434867772222 -->
            <parkingAreaReroute id="parkingArea_2503_1_35" visible="true"/> <!-- dist: 37.006769714587215 -->
            <parkingAreaReroute id="parkingArea_2625_1_5" visible="true"/> <!-- dist: 37.22368610511159 -->
            <parkingAreaReroute id="parkingArea_-43_1_75" visible="true"/> <!-- dist: 38.69743610511159 -->
            <parkingAreaReroute id="parkingArea_4291_2_37" visible="true"/> <!-- dist: 42.113149304220045 -->
        </interval>
    </rerouter>
    <rerouter id="parkingArea_-1489_2_111" edges="-1489">
        <interval begin="0.0" end="86400">
            <!-- in order of distance --> 
            <parkingAreaReroute id="parkingArea_-1489_2_111" visible="true"/> <!-- dist: 0.0 -->
            <parkingAreaReroute id="parkingArea_-1016_2_89" visible="true"/> <!-- dist: 15.59916396688265 -->
            <parkingAreaReroute id="parkingArea_2858_2_110" visible="true"/> <!-- dist: 22.30429006775348 -->
            <parkingAreaReroute id="parkingArea_-386_1_87" visible="true"/> <!-- dist: 31.505211483081347 -->
            <parkingAreaReroute id="parkingArea_1498_1_109" visible="true"/> <!-- dist: 32.23504499640028 -->
            <parkingAreaReroute id="parkingArea_-2738_1_61" visible="true"/> <!-- dist: 35.58542470795884 -->
            <parkingAreaReroute id="parkingArea_3557_0_114" visible="true"/> <!-- dist: 38.6611625908637 -->
            <parkingAreaReroute id="parkingArea_-2748_2_112" visible="true"/> <!-- dist: 41.177204034636134 -->
            <parkingAreaReroute id="parkingArea_2370_2_92" visible="true"/> <!-- dist: 43.303207285352656 -->
            <parkingAreaReroute id="parkingArea_402_1_85" visible="true"/> <!-- dist: 45.90405957523398 -->
            <parkingAreaReroute id="parkingArea_-1239_1_90" visible="true"/> <!-- dist: 46.24723986274647 -->
        </interval>
    </rerouter>
    <rerouter id="parkingArea_-1634_1_95" edges="-1634">
        <interval begin="0.0" end="86400">
            <!-- in order of distance --> 
            <parkingAreaReroute id="parkingArea_-1634_1_95" visible="true"/> <!-- dist: 0.0 -->
            <parkingAreaReroute id="parkingArea_780_1_94" visible="true"/> <!-- dist: 22.304290067753485 -->
            <parkingAreaReroute id="parkingArea_2345_2_96" visible="true"/> <!-- dist: 23.80702979378088 -->
            <parkingAreaReroute id="parkingArea_-382_1_86" visible="true"/> <!-- dist: 29.611358833228824 -->
            <parkingAreaReroute id="parkingArea_1130_1_19" visible="true"/> <!-- dist: 32.26129499640029 -->
            <parkingAreaReroute id="parkingArea_402_1_85" visible="true"/> <!-- dist: 32.856833551415754 -->
            <parkingAreaReroute id="parkingArea_-752_1_84" visible="true"/> <!-- dist: 33.2434867772222 -->
            <parkingAreaReroute id="parkingArea_-2235_2_100" visible="true"/> <!-- dist: 34.7434867772222 -->
            <parkingAreaReroute id="parkingArea_4646_2_98" visible="true"/> <!-- dist: 38.20587788593351 -->
            <parkingAreaReroute id="parkingArea_-1130_1_20" visible="true"/> <!-- dist: 39.49376642685486 -->
            <parkingAreaReroute id="parkingArea_2338_1_17" visible="true"/> <!-- dist: 39.60470752339812 -->
        </interval>
    </rerouter>
    <rerouter id="parkingArea_-1762_1_52" edges="-1762">
        <interval begin="0.0" end="86400">
            <!-- in order of distance --> 
            <parkingAreaReroute id="parkingArea_-1762_1_52" visible="true"/> <!-- dist: 0.0 -->
            <parkingAreaReroute id="parkingArea_1248_1_58" visible="true"/> <!-- dist: 22.798588012958962 -->
            <parkingAreaReroute id="parkingArea_-2396_2_51" visible="true"/> <!-- dist: 33.0859016698019 -->
            <parkingAreaReroute id="parkingArea_-1248_2_57" visible="true"/> <!-- dist: 33.2434867772222 -->
            <parkingAreaReroute id="parkingArea_-372_1_76" visible="true"/> <!-- dist: 34.11167470795885 -->
            <parkingAreaReroute id="parkingArea_-2388_0_53" visible="true"/> <!-- dist: 35.01247176938173 -->
            <parkingAreaReroute id="parkingArea_2372_1_59" visible="true"/> <!-- dist: 38.69743610511159 -->
            <parkingAreaReroute id="parkingArea_-4026_1_50" visible="true"/> <!-- dist: 39.872422490071756 -->
            <parkingAreaReroute id="parkingArea_-3302_1_54" visible="true"/> <!-- dist: 42.21189581545805 -->
            <parkingAreaReroute id="parkingArea_1750_0_91" visible="true"/> <!-- dist: 46.66014308855292 -->
            <parkingAreaReroute id="parkingArea_-1239_1_90" visible="true"/> <!-- dist: 49.90561780673985 -->
        </interval>
    </rerouter>
    <rerouter id="parkingArea_-1873_1_12" edges="-1873">
        <interval begin="0.0" end="86400">
            <!-- in order of distance --> 
            <parkingAreaReroute id="parkingArea_-1873_1_12" visible="true"/> <!-- dist: 0.0 -->
            <parkingAreaReroute id="parkingArea_1873_1_13" visible="true"/> <!-- dist: 16.607605747704568 -->
            <parkingAreaReroute id="parkingArea_2625_1_5" visible="true"/> <!-- dist: 22.82483801295896 -->
            <parkingAreaReroute id="parkingArea_-1259_1_15" visible="true"/> <!-- dist: 23.80702979378088 -->
            <parkingAreaReroute id="parkingArea_-906_1_14" visible="true"/> <!-- dist: 26.070312731145894 -->
            <parkingAreaReroute id="parkingArea_-2635_1_6" visible="true"/> <!-- dist: 31.483638905275424 -->
            <parkingAreaReroute id="parkingArea_3554_1_7" visible="true"/> <!-- dist: 31.975197124453505 -->
            <parkingAreaReroute id="parkingArea_3543_1_4" visible="true"/> <!-- dist: 32.26129499640028 -->
            <parkingAreaReroute id="parkingArea_4297_1_3" visible="true"/> <!-- dist: 39.870396138413426 -->
            <parkingAreaReroute id="parkingArea_-1267_1_16" visible="true"/> <!-- dist: 41.45135260412044 -->
            <parkingAreaReroute id="parkingArea_3518_1_33" visible="true"/> <!-- dist: 49.142334869374835 -->
        </interval>
    </rerouter>
    <rerouter id="parkingArea_-19_1_82" edges="-19">
        <interval begin="0.0" end="86400">
            <!-- in order of distance --> 
            <parkingAreaReroute id="parkingArea_-19_1_82" visible="true"/> <!-- dist: 0.0 -->
            <parkingAreaReroute id="parkingArea_23_0_81" visible="true"/> <!-- dist: 17.243152447804174 -->
            <parkingAreaReroute id="parkingArea_-5_0_79" visible="true"/> <!-- dist: 31.76699705119481 -->
            <parkingAreaReroute id="parkingArea_268_0_83" visible="true"/> <!-- dist: 31.874641770593833 -->
            <parkingAreaReroute id="parkingArea_402_1_85" visible="true"/> <!-- dist: 32.856833551415754 -->
            <parkingAreaReroute id="parkingArea_41_1_77" visible="true"/> <!-- dist: 32.998012059035275 -->
            <parkingAreaReroute id="parkingArea_-11_1_78" visible="true"/> <!-- dist: 33.24074705119481 -->
            <parkingAreaReroute id="parkingArea_-382_1_86" visible="true"/> <!-- dist: 33.2434867772222 -->
            <parkingAreaReroute id="parkingArea_-43_1_75" visible="true"/> <!-- dist: 40.44291082329852 -->
            <parkingAreaReroute id="parkingArea_-23_2_80" visible="true"/> <!-- dist: 40.81984791216702 -->
            <parkingAreaReroute id="parkingArea_780_1_94" visible="true"/> <!-- dist: 43.79329053485708 -->
        </interval>
    </rerouter>
    <rerouter id="parkingArea_-2124_1_108" edges="-2124">
        <interval begin="0.0" end="86400">
            <!-- in order of distance --> 
            <parkingAreaReroute id="parkingArea_-2124_1_108" visible="true"/> <!-- dist: 0.0 -->
            <parkingAreaReroute id="parkingArea_1498_1_109" visible="true"/> <!-- dist: 23.7671831672821 -->
            <parkingAreaReroute id="parkingArea_2858_2_110" visible="true"/> <!-- dist: 32.46660721335841 -->
            <parkingAreaReroute id="parkingArea_-1489_2_111" visible="true"/> <!-- dist: 32.85326043916486 -->
            <parkingAreaReroute id="parkingArea_-2227_1_107" visible="true"/> <!-- dist: 37.560000040220245 -->
            <parkingAreaReroute id="parkingArea_-1016_2_89" visible="true"/> <!-- dist: 42.28971742260619 -->
            <parkingAreaReroute id="parkingArea_-386_1_87" visible="true"/> <!-- dist: 42.296916846652266 -->
            <parkingAreaReroute id="parkingArea_3557_0_114" visible="true"/> <!-- dist: 48.365455305511034 -->
            <parkingAreaReroute id="parkingArea_2370_2_92" visible="true"/> <!-- dist: 50.0075 -->
            <parkingAreaReroute id="parkingArea_-2748_2_112" visible="true"/> <!-- dist: 51.33952118024106 -->
            <parkingAreaReroute id="parkingArea_-6728_1_116" visible="true"/> <!-- dist: 51.365771180241055 -->
        </interval>
    </rerouter>
    <rerouter id="parkingArea_-2227_1_107" edges="-2227">
        <interval begin="0.0" end="86400">
            <!-- in order of distance --> 
            <parkingAreaReroute id="parkingArea_-2227_1_107" visible="true"/> <!-- dist: 0.0 -->
            <parkingAreaReroute id="parkingArea_-2124_1_108" visible="true"/> <!-- dist: 24.888597351339804 -->
            <parkingAreaReroute id="parkingArea_-2235_2_100" visible="true"/> <!-- dist: 25.451018274702406 -->
            <parkingAreaReroute id="parkingArea_-1634_1_95" visible="true"/> <!-- dist: 31.25534731415035 -->
            <parkingAreaReroute id="parkingArea_2345_2_96" visible="true"/> <!-- dist: 31.6420005399568 -->
            <parkingAreaReroute id="parkingArea_-2964_2_102" visible="true"/> <!-- dist: 33.38747525814373 -->
            <parkingAreaReroute id="parkingArea_-2965_1_101" visible="true"/> <!-- dist: 34.66856641468682 -->
            <parkingAreaReroute id="parkingArea_5517_2_105" visible="true"/> <!-- dist: 37.34142458603311 -->
            <parkingAreaReroute id="parkingArea_648_1_88" visible="true"/> <!-- dist: 38.8123504958313 -->
            <parkingAreaReroute id="parkingArea_402_1_85" visible="true"/> <!-- dist: 39.19180429759167 -->
            <parkingAreaReroute id="parkingArea_268_0_83" visible="true"/> <!-- dist: 41.70024607841359 -->
        </interval>
    </rerouter>
    <rerouter id="parkingArea_-2235_2_100" edges="-2235">
        <interval begin="0.0" end="86400">
            <!-- in order of distance --> 
            <parkingAreaReroute id="parkingArea_-2235_2_100" visible="true"/> <!-- dist: 0.0 -->
            <parkingAreaReroute id="parkingArea_-2124_1_108" visible="true"/> <!-- dist: 24.50187387825875 -->
            <parkingAreaReroute id="parkingArea_-1634_1_95" visible="true"/> <!-- dist: 31.354093825388354 -->
            <parkingAreaReroute id="parkingArea_2345_2_96" visible="true"/> <!-- dist: 31.740747051194806 -->
            <parkingAreaReroute id="parkingArea_-2964_2_102" visible="true"/> <!-- dist: 32.856833551415754 -->
            <parkingAreaReroute id="parkingArea_-2965_1_101" visible="true"/> <!-- dist: 34.137924707958845 -->
            <parkingAreaReroute id="parkingArea_5517_2_105" visible="true"/> <!-- dist: 36.81078287930514 -->
            <parkingAreaReroute id="parkingArea_-2227_1_107" visible="true"/> <!-- dist: 38.58281497480202 -->
            <parkingAreaReroute id="parkingArea_648_1_88" visible="true"/> <!-- dist: 39.05501524071623 -->
            <parkingAreaReroute id="parkingArea_402_1_85" visible="true"/> <!-- dist: 39.4344690424766 -->
            <parkingAreaReroute id="parkingArea_1498_1_109" visible="true"/> <!-- dist: 41.81837310025648 -->
        </interval>
    </rerouter>
    <rerouter id="parkingArea_-2340_1_9" edges="-2340">
        <interval begin="0.0" end="86400">
            <!-- in order of distance --> 
            <parkingAreaReroute id="parkingArea_-2340_1_9" visible="true"/> <!-- dist: 0.0 -->
            <parkingAreaReroute id="parkingArea_2338_1_17" visible="true"/> <!-- dist: 17.243152447804174 -->
            <parkingAreaReroute id="parkingArea_-752_1_84" visible="true"/> <!-- dist: 20.56155507559395 -->
            <parkingAreaReroute id="parkingArea_1130_1_19" visible="true"/> <!-- dist: 24.298588012958962 -->
            <parkingAreaReroute id="parkingArea_780_1_94" visible="true"/> <!-- dist: 30.024262059035276 -->
            <parkingAreaReroute id="parkingArea_4539_1_8" visible="true"/> <!-- dist: 31.802784161600467 -->
            <parkingAreaReroute id="parkingArea_-1130_1_20" visible="true"/> <!-- dist: 34.559651669801895 -->
            <parkingAreaReroute id="parkingArea_5650_1_10" visible="true"/> <!-- dist: 34.7434867772222 -->
            <parkingAreaReroute id="parkingArea_-382_1_86" visible="true"/> <!-- dist: 34.96040316774658 -->
            <parkingAreaReroute id="parkingArea_402_1_85" visible="true"/> <!-- dist: 38.2058778859335 -->
            <parkingAreaReroute id="parkingArea_5626_1_11" visible="true"/> <!-- dist: 38.99887824590471 -->
        </interval>
    </rerouter>
    <rerouter id="parkingArea_-2353_2_60" edges="-2353">
        <interval begin="0.0" end="86400">
            <!-- in order of distance --> 
            <parkingAreaReroute id="parkingArea_-2353_2_60" visible="true"/> <!-- dist: 0.0 -->
            <parkingAreaReroute id="parkingArea_3087_2_62" visible="true"/> <!-- dist: 23.80429006775348 -->
            <parkingAreaReroute id="parkingArea_-1239_1_90" visible="true"/> <!-- dist: 23.91193478715251 -->
            <parkingAreaReroute id="parkingArea_1750_0_91" visible="true"/> <!-- dist: 24.298588012958962 -->
            <parkingAreaReroute id="parkingArea_2372_1_59" visible="true"/> <!-- dist: 31.874641770593836 -->
            <parkingAreaReroute id="parkingArea_2370_2_92" visible="true"/> <!-- dist: 34.279653527717784 -->
            <parkingAreaReroute id="parkingArea_-1248_2_57" visible="true"/> <!-- dist: 40.54781581667015 -->
            <parkingAreaReroute id="parkingArea_-2738_1_61" visible="true"/> <!-- dist: 40.816800808829676 -->
            <parkingAreaReroute id="parkingArea_4650_1_63" visible="true"/> <!-- dist: 41.20345403463613 -->
            <parkingAreaReroute id="parkingArea_-372_1_76" visible="true"/> <!-- dist: 42.04781581667015 -->
            <parkingAreaReroute id="parkingArea_-2370_1_93" visible="true"/> <!-- dist: 42.24017109727112 -->
        </interval>
    </rerouter>
    <rerouter id="parkingArea_-2370_1_93" edges="-2370">
        <interval begin="0.0" end="86400">
            <!-- in order of distance --> 
            <parkingAreaReroute id="parkingArea_-2370_1_93" visible="true"/> <!-- dist: 0.0 -->
            <parkingAreaReroute id="parkingArea_2370_2_92" visible="true"/> <!-- dist: 16.14158308431216 -->
            <parkingAreaReroute id="parkingArea_-1239_1_90" visible="true"/> <!-- dist: 23.316946544276455 -->
            <parkingAreaReroute id="parkingArea_1750_0_91" visible="true"/> <!-- dist: 26.562421262463385 -->
            <parkingAreaReroute id="parkingArea_1498_1_109" visible="true"/> <!-- dist: 37.329141410622626 -->
            <parkingAreaReroute id="parkingArea_-386_1_87" visible="true"/> <!-- dist: 39.59962377203372 -->
            <parkingAreaReroute id="parkingArea_-1248_2_57" visible="true"/> <!-- dist: 39.952827573794096 -->
            <parkingAreaReroute id="parkingArea_-372_1_76" visible="true"/> <!-- dist: 41.452827573794096 -->
            <parkingAreaReroute id="parkingArea_-2738_1_61" visible="true"/> <!-- dist: 42.59242434798764 -->
            <parkingAreaReroute id="parkingArea_3087_2_62" visible="true"/> <!-- dist: 42.97907757379409 -->
            <parkingAreaReroute id="parkingArea_-2353_2_60" visible="true"/> <!-- dist: 43.22181256595362 -->
        </interval>
    </rerouter>
    <rerouter id="parkingArea_-2388_0_53" edges="-2388">
        <interval begin="0.0" end="86400">
            <!-- in order of distance --> 
            <parkingAreaReroute id="parkingArea_-2388_0_53" visible="true"/> <!-- dist: 0.0 -->
            <parkingAreaReroute id="parkingArea_-1762_1_52" visible="true"/> <!-- dist: 15.59916396688265 -->
            <parkingAreaReroute id="parkingArea_-2396_2_51" visible="true"/> <!-- dist: 23.804290067753485 -->
            <parkingAreaReroute id="parkingArea_1248_1_58" visible="true"/> <!-- dist: 32.23504499640028 -->
            <parkingAreaReroute id="parkingArea_-3302_1_54" visible="true"/> <!-- dist: 32.74918883201672 -->
            <parkingAreaReroute id="parkingArea_-4026_1_50" visible="true"/> <!-- dist: 32.96173854478738 -->
            <parkingAreaReroute id="parkingArea_-1248_2_57" visible="true"/> <!-- dist: 42.67994376066353 -->
            <parkingAreaReroute id="parkingArea_-372_1_76" visible="true"/> <!-- dist: 43.54813169140017 -->
            <parkingAreaReroute id="parkingArea_2372_1_59" visible="true"/> <!-- dist: 48.13389308855292 -->
            <parkingAreaReroute id="parkingArea_-7264_1_48" visible="true"/> <!-- dist: 48.66975966116259 -->
            <parkingAreaReroute id="parkingArea_-3191_1_56" visible="true"/> <!-- dist: 49.38506986153436 -->
        </interval>
    </rerouter>
    <rerouter id="parkingArea_-2396_2_51" edges="-2396">
        <interval begin="0.0" end="86400">
            <!-- in order of distance --> 
            <parkingAreaReroute id="parkingArea_-2396_2_51" visible="true"/> <!-- dist: 0.0 -->
            <parkingAreaReroute id="parkingArea_-1762_1_52" visible="true"/> <!-- dist: 15.212510741076198 -->
            <parkingAreaReroute id="parkingArea_-2388_0_53" visible="true"/> <!-- dist: 25.30702979378088 -->
            <parkingAreaReroute id="parkingArea_1248_1_58" visible="true"/> <!-- dist: 31.848391770593835 -->
            <parkingAreaReroute id="parkingArea_-3302_1_54" visible="true"/> <!-- dist: 32.506453839857194 -->
            <parkingAreaReroute id="parkingArea_-4026_1_50" visible="true"/> <!-- dist: 33.204473536946914 -->
            <parkingAreaReroute id="parkingArea_-1248_2_57" visible="true"/> <!-- dist: 42.29329053485708 -->
            <parkingAreaReroute id="parkingArea_-372_1_76" visible="true"/> <!-- dist: 43.16147846559372 -->
            <parkingAreaReroute id="parkingArea_2372_1_59" visible="true"/> <!-- dist: 47.74723986274647 -->
            <parkingAreaReroute id="parkingArea_-7264_1_48" visible="true"/> <!-- dist: 49.05641288696904 -->
            <parkingAreaReroute id="parkingArea_-3191_1_56" visible="true"/> <!-- dist: 49.142334869374835 -->
        </interval>
    </rerouter>
    <rerouter id="parkingArea_-23_2_80" edges="-23">
        <interval begin="0.0" end="86400">
            <!-- in order of distance --> 
            <parkingAreaReroute id="parkingArea_-23_2_80" visible="true"/> <!-- dist: 0.0 -->
            <parkingAreaReroute id="parkingArea_23_0_81" visible="true"/> <!-- dist: 15.39284298352022 -->
            <parkingAreaReroute id="parkingArea_-19_1_82" visible="true"/> <!-- dist: 25.801397986260966 -->
            <parkingAreaReroute id="parkingArea_268_0_83" visible="true"/> <!-- dist: 31.25534731415035 -->
            <parkingAreaReroute id="parkingArea_402_1_85" visible="true"/> <!-- dist: 31.60572702570891 -->
            <parkingAreaReroute id="parkingArea_-382_1_86" visible="true"/> <!-- dist: 31.99238025151536 -->
            <parkingAreaReroute id="parkingArea_-11_1_78" visible="true"/> <!-- dist: 33.122245431324394 -->
            <parkingAreaReroute id="parkingArea_-5_0_79" visible="true"/> <!-- dist: 34.14801846948134 -->
            <parkingAreaReroute id="parkingArea_41_1_77" visible="true"/> <!-- dist: 34.59599543132439 -->
            <parkingAreaReroute id="parkingArea_-43_1_75" visible="true"/> <!-- dist: 39.90876625159426 -->
            <parkingAreaReroute id="parkingArea_780_1_94" visible="true"/> <!-- dist: 42.54218400915023 -->
        </interval>
    </rerouter>
    <rerouter id="parkingArea_-2503_2_34" edges="-2503">
        <interval begin="0.0" end="86400">
            <!-- in order of distance --> 
            <parkingAreaReroute id="parkingArea_-2503_2_34" visible="true"/> <!-- dist: 0.0 -->
            <parkingAreaReroute id="parkingArea_2503_1_35" visible="true"/> <!-- dist: 15.104866021677168 -->
            <parkingAreaReroute id="parkingArea_-1267_1_16" visible="true"/> <!-- dist: 24.648967724517522 -->
            <parkingAreaReroute id="parkingArea_-4254_1_32" visible="true"/> <!-- dist: 31.766997051194807 -->
            <parkingAreaReroute id="parkingArea_4811_1_25" visible="true"/> <!-- dist: 33.38473553211633 -->
            <parkingAreaReroute id="parkingArea_3518_1_33" visible="true"/> <!-- dist: 33.50973204335434 -->
            <parkingAreaReroute id="parkingArea_4817_1_26" visible="true"/> <!-- dist: 35.504029988559815 -->
            <parkingAreaReroute id="parkingArea_-4948_1_30" visible="true"/> <!-- dist: 38.55351787146466 -->