<?xml version="1.0" encoding="UTF-8"?>

<net version="1.3" junctionCornerDetail="5" walkingareas="true" limitTurnSpeed="5.50" xmlns:xsi="http://www.w3.org/2001/XMLSchema-instance" xsi:noNamespaceSchemaLocation="http://sumo.dlr.de/xsd/net_file.xsd">

    <location netOffset="899.80,998.17" convBoundary="0.00,0.00,1894.89,1803.55" origBoundary="-899.80,-998.17,995.09,805.38" projParameter="!"/>

    <edge id=":1_0" function="internal">
        <lane id=":1_0_0" index="0" disallow="pedestrian" speed="6.60" length="5.00" shape="912.11,1002.97,-12.21 909.67,1003.30,-12.21 907.91,1004.37,-12.21 907.66,1004.78,-12.21"/>
    </edge>
    <edge id=":1_1" function="internal">
        <lane id=":1_1_0" index="0" disallow="pedestrian" speed="13.89" length="21.20" shape="912.11,1002.97,-12.21 890.93,1002.79,-12.21"/>
        <lane id=":1_1_1" index="1" disallow="pedestrian" speed="13.89" length="21.20" shape="912.15,999.77,-12.21 890.94,999.59,-12.21"/>
    </edge>
    <edge id=":1_3" function="internal">
        <lane id=":1_3_0" index="0" disallow="pedestrian" speed="9.63" length="6.81" shape="912.15,999.77,-12.21 906.95,998.93,-12.21 905.65,998.11,-12.21"/>
    </edge>
    <edge id=":1_16" function="internal">
        <lane id=":1_16_0" index="0" disallow="pedestrian" speed="6.60" length="4.21" shape="907.66,1004.78,-12.21 906.82,1006.18,-12.21 906.41,1008.73,-12.21"/>
    </edge>
    <edge id=":1_17" function="internal">
        <lane id=":1_17_0" index="0" disallow="pedestrian" speed="9.63" length="13.09" shape="905.65,998.11,-12.21 903.14,996.55,-12.21 900.71,992.65,-12.21 899.66,987.21,-12.21"/>
    </edge>
    <edge id=":1_4" function="internal">
        <lane id=":1_4_0" index="0" disallow="pedestrian" speed="7.02" length="10.10" shape="906.05,986.85,-12.21 906.57,989.67,-12.21 907.78,991.70,-12.21 909.67,992.93,-12.21 912.24,993.37,-12.21"/>
    </edge>
    <edge id=":1_5" function="internal">
        <lane id=":1_5_0" index="0" disallow="pedestrian" speed="13.89" length="21.76" shape="906.05,986.85,-12.21 906.41,1008.73,-12.21"/>
        <lane id=":1_5_1" index="1" disallow="pedestrian" speed="13.89" length="21.76" shape="902.85,987.03,-12.21 903.21,1008.65,-12.21"/>
    </edge>
    <edge id=":1_7" function="internal">
        <lane id=":1_7_0" index="0" disallow="pedestrian" speed="9.21" length="20.02" shape="902.85,987.03,-12.21 902.38,992.54,-12.21 900.24,996.47,-12.21 896.42,998.82,-12.21 890.94,999.59,-12.21"/>
    </edge>
    <edge id=":1_8" function="internal">
        <lane id=":1_8_0" index="0" disallow="pedestrian" speed="6.44" length="4.96" shape="890.97,993.19,-12.21 893.50,992.83,-12.21 895.26,991.75,-12.21 895.42,991.46,-12.21"/>
    </edge>
    <edge id=":1_9" function="internal">
        <lane id=":1_9_0" index="0" disallow="pedestrian" speed="13.89" length="21.26" shape="890.97,993.19,-12.21 912.24,993.37,-12.21"/>
        <lane id=":1_9_1" index="1" disallow="pedestrian" speed="13.89" length="21.26" shape="890.95,996.39,-12.21 912.20,996.57,-12.21"/>
    </edge>
    <edge id=":1_11" function="internal">
        <lane id=":1_11_0" index="0" disallow="pedestrian" speed="9.30" length="7.24" shape="890.95,996.39,-12.21 896.43,997.17,-12.21 897.90,998.05,-12.21"/>
    </edge>
    <edge id=":1_18" function="internal">
        <lane id=":1_18_0" index="0" disallow="pedestrian" speed="6.44" length="4.28" shape="895.42,991.46,-12.21 896.25,989.94,-12.21 896.46,987.39,-12.21"/>
    </edge>
    <edge id=":1_19" function="internal">
        <lane id=":1_19_0" index="0" disallow="pedestrian" speed="9.30" length="12.63" shape="897.90,998.05,-12.21 900.30,999.48,-12.21 902.56,1003.31,-12.21 903.21,1008.65,-12.21"/>
    </edge>
    <edge id=":1_12" function="internal">
        <lane id=":1_12_0" index="0" disallow="pedestrian" speed="6.57" length="9.39" shape="896.81,1008.49,-12.21 896.50,1006.00,-12.21 895.41,1004.22,-12.21 893.56,1003.15,-12.21 890.93,1002.79,-12.21"/>
    </edge>
    <edge id=":1_13" function="internal">
        <lane id=":1_13_0" index="0" disallow="pedestrian" speed="13.89" length="21.23" shape="896.81,1008.49,-12.21 896.46,987.39,-12.21"/>
        <lane id=":1_13_1" index="1" disallow="pedestrian" speed="13.89" length="21.23" shape="900.01,1008.57,-12.21 899.66,987.21,-12.21"/>
    </edge>
    <edge id=":1_15" function="internal">
        <lane id=":1_15_0" index="0" disallow="pedestrian" speed="9.32" length="19.45" shape="900.01,1008.57,-12.21 900.89,1003.26,-12.21 903.21,999.49,-12.21 906.98,997.26,-12.21 912.20,996.57,-12.21"/>
    </edge>
    <edge id=":1_c0" function="crossing" crossingEdges="5 -5">
        <lane id=":1_c0_0" index="0" allow="pedestrian" speed="1.00" length="12.80" width="4.00" shape="910.29,991.75,-12.57 910.12,1004.54,-12.57"/>
    </edge>
    <edge id=":1_c1" function="crossing" crossingEdges="3 -3">
        <lane id=":1_c1_0" index="0" allow="pedestrian" speed="1.00" length="12.80" width="4.00" shape="894.98,989.48,-12.33 907.76,988.75,-12.33"/>
    </edge>
    <edge id=":1_c2" function="crossing" crossingEdges="11 -11">
        <lane id=":1_c2_0" index="0" allow="pedestrian" speed="1.00" length="12.80" width="4.00" shape="892.89,1004.39,-11.84 892.94,991.59,-11.84"/>
    </edge>
    <edge id=":1_c3" function="crossing" crossingEdges="15 -15">
        <lane id=":1_c3_0" index="0" allow="pedestrian" speed="1.00" length="12.80" width="4.00" shape="908.06,1006.79,-12.50 895.26,1006.47,-12.50"/>
    </edge>
    <edge id=":1_w0" function="walkingarea">
        <lane id=":1_w0_0" index="0" allow="pedestrian" speed="1.00" length="3.42" width="4.00" shape="908.01,1008.79,-12.50 908.01,1008.77,-12.21 910.01,1008.82,-12.21 912.06,1006.57,-12.21 912.09,1004.57,-12.21 912.12,1004.57,-12.57 910.87,1004.67,-12.21 909.87,1005.01,-12.21 909.08,1005.59,-12.21 908.51,1006.41,-12.21 908.15,1007.47,-12.21"/>
    </edge>
    <edge id=":1_w1" function="walkingarea">
        <lane id=":1_w1_0" index="0" allow="pedestrian" speed="1.00" length="4.01" width="4.00" shape="912.29,991.77,-12.57 912.26,991.77,-12.21 912.29,989.77,-12.21 909.64,986.64,-12.21 907.65,986.76,-12.21 907.65,986.75,-12.33 907.85,988.27,-12.21 908.29,989.52,-12.21 908.94,990.49,-12.21 909.82,991.19,-12.21 910.93,991.62,-12.21"/>
    </edge>
    <edge id=":1_w2" function="walkingarea">
        <lane id=":1_w2_0" index="0" allow="pedestrian" speed="1.00" length="3.31" width="4.00" shape="894.87,987.48,-12.33 894.87,987.48,-12.21 892.87,987.60,-12.21 890.98,989.59,-12.21 890.98,991.59,-12.21 890.94,991.59,-11.84 892.23,991.48,-12.21 893.24,991.14,-12.21 894.01,990.57,-12.21 894.54,989.77,-12.21 894.82,988.74,-12.21"/>
    </edge>
    <edge id=":1_w3" function="walkingarea">
        <lane id=":1_w3_0" index="0" allow="pedestrian" speed="1.00" length="3.46" width="4.00" shape="890.89,1004.39,-11.84 890.92,1004.39,-12.21 890.91,1006.39,-12.21 893.21,1008.40,-12.21 895.21,1008.45,-12.21 895.21,1008.47,-12.50 895.12,1007.21,-12.21 894.78,1006.20,-12.21 894.19,1005.41,-12.21 893.35,1004.85,-12.21 892.26,1004.50,-12.21"/>
    </edge>
    <edge id=":10_0" function="internal">
        <lane id=":10_0_0" index="0" disallow="pedestrian" speed="7.09" length="10.33" shape="795.54,1008.70,-27.08 795.01,1005.90,-27.08 793.75,1003.88,-27.08 791.76,1002.65,-27.08 789.04,1002.20,-27.08"/>
    </edge>
    <edge id=":10_1" function="internal">
        <lane id=":10_1_0" index="0" disallow="pedestrian" speed="13.89" length="21.66" shape="795.54,1008.70,-27.08 794.85,986.99,-27.08"/>
        <lane id=":10_1_1" index="1" disallow="pedestrian" speed="13.89" length="21.66" shape="798.74,1008.54,-27.08 798.05,986.96,-27.08"/>
    </edge>
    <edge id=":10_3" function="internal">
        <lane id=":10_3_0" index="0" disallow="pedestrian" speed="9.21" length="19.97" shape="798.74,1008.54,-27.08 799.24,1003.05,-27.08 801.39,999.13,-27.08 805.20,996.79,-27.08 810.66,996.03,-27.08"/>
    </edge>
    <edge id=":10_4" function="internal">
        <lane id=":10_4_0" index="0" disallow="pedestrian" speed="6.45" length="5.00" shape="810.63,1002.43,-27.08 808.11,1002.78,-27.08 806.35,1003.86,-27.08 806.17,1004.20,-27.08"/>
    </edge>
    <edge id=":10_5" function="internal">
        <lane id=":10_5_0" index="0" disallow="pedestrian" speed="13.89" length="21.57" shape="810.63,1002.43,-27.08 789.04,1002.20,-27.08"/>
        <lane id=":10_5_1" index="1" disallow="pedestrian" speed="13.89" length="21.57" shape="810.65,999.23,-27.08 789.10,999.00,-27.08"/>
    </edge>
    <edge id=":10_7" function="internal">
        <lane id=":10_7_0" index="0" disallow="pedestrian" speed="9.46" length="7.27" shape="810.65,999.23,-27.08 805.19,998.44,-27.08 803.68,997.56,-27.08"/>
    </edge>
    <edge id=":10_16" function="internal">
        <lane id=":10_16_0" index="0" disallow="pedestrian" speed="6.45" length="4.22" shape="806.17,1004.20,-27.08 805.36,1005.67,-27.08 805.13,1008.21,-27.08"/>
    </edge>
    <edge id=":10_17" function="internal">
        <lane id=":10_17_0" index="0" disallow="pedestrian" speed="9.46" length="12.72" shape="803.68,997.56,-27.08 801.27,996.14,-27.08 798.89,992.31,-27.08 798.05,986.96,-27.08"/>
    </edge>
    <edge id=":10_8" function="internal">
        <lane id=":10_8_0" index="0" disallow="pedestrian" speed="6.78" length="9.79" shape="804.45,986.88,-27.08 804.86,989.48,-27.08 806.04,991.33,-27.08 807.98,992.45,-27.08 810.68,992.83,-27.08"/>
    </edge>
    <edge id=":10_9" function="internal">
        <lane id=":10_9_0" index="0" disallow="pedestrian" speed="13.89" length="21.40" shape="804.45,986.88,-27.08 805.13,1008.21,-27.08"/>
        <lane id=":10_9_1" index="1" disallow="pedestrian" speed="13.89" length="21.40" shape="801.25,986.92,-27.08 801.93,1008.37,-27.08"/>
    </edge>
    <edge id=":10_11" function="internal">
        <lane id=":10_11_0" index="0" disallow="pedestrian" speed="9.23" length="19.66" shape="801.25,986.92,-27.08 800.54,992.28,-27.08 798.28,996.09,-27.08 794.47,998.32,-27.08 789.10,999.00,-27.08"/>
    </edge>
    <edge id=":10_12" function="internal">
        <lane id=":10_12_0" index="0" disallow="pedestrian" speed="6.48" length="4.90" shape="789.21,992.60,-27.08 791.70,992.29,-27.08 793.47,991.25,-27.08 793.64,990.96,-27.08"/>
    </edge>
    <edge id=":10_13" function="internal">
        <lane id=":10_13_0" index="0" disallow="pedestrian" speed="13.89" length="21.49" shape="789.21,992.60,-27.08 810.68,992.83,-27.08"/>
        <lane id=":10_13_1" index="1" disallow="pedestrian" speed="13.89" length="21.49" shape="789.15,995.80,-27.08 810.66,996.03,-27.08"/>
    </edge>
    <edge id=":10_15" function="internal">
        <lane id=":10_15_0" index="0" disallow="pedestrian" speed="9.68" length="6.97" shape="789.15,995.80,-27.08 794.50,996.66,-27.08 795.83,997.47,-27.08"/>
    </edge>
    <edge id=":10_18" function="internal">
        <lane id=":10_18_0" index="0" disallow="pedestrian" speed="6.48" length="4.23" shape="793.64,990.96,-27.08 794.52,989.48,-27.08 794.85,986.99,-27.08"/>
    </edge>
    <edge id=":10_19" function="internal">
        <lane id=":10_19_0" index="0" disallow="pedestrian" speed="9.68" length="13.17" shape="795.83,997.47,-27.08 798.42,999.05,-27.08 800.89,1002.95,-27.08 801.93,1008.37,-27.08"/>
    </edge>
    <edge id=":10_c0" function="crossing" crossingEdges="29 -29">
        <lane id=":10_c0_0" index="0" allow="pedestrian" speed="1.00" length="12.80" width="4.00" shape="806.62,1006.18,-27.55 793.84,1006.85,-27.55"/>
    </edge>
    <edge id=":10_c1" function="crossing" crossingEdges="-11 11">
        <lane id=":10_c1_0" index="0" allow="pedestrian" speed="1.00" length="12.80" width="4.00" shape="808.72,991.22,-27.44 808.66,1004.02,-27.44"/>
    </edge>
    <edge id=":10_c2" function="crossing" crossingEdges="27 -27">
        <lane id=":10_c2_0" index="0" allow="pedestrian" speed="1.00" length="12.80" width="4.00" shape="793.27,988.97,-27.50 806.07,988.82,-27.51"/>
    </edge>
    <edge id=":10_c3" function="crossing" crossingEdges="41 -41">
        <lane id=":10_c3_0" index="0" allow="pedestrian" speed="1.00" length="12.80" width="4.00" shape="790.80,1003.83,-27.98 791.02,991.03,-27.98"/>
    </edge>
    <edge id=":10_w0" function="walkingarea">
        <lane id=":10_w0_0" index="0" allow="pedestrian" speed="1.00" length="4.14" width="4.00" shape="788.80,1003.80,-27.98 789.02,1003.80,-27.08 788.98,1005.80,-27.08 791.95,1008.89,-27.08 793.94,1008.79,-27.08 793.95,1008.84,-27.55 793.73,1007.28,-27.08 793.28,1006.05,-27.08 792.58,1005.09,-27.08 791.64,1004.39,-27.08 790.45,1003.96,-27.08"/>
    </edge>
    <edge id=":10_w1" function="walkingarea">
        <lane id=":10_w1_0" index="0" allow="pedestrian" speed="1.00" length="3.31" width="4.00" shape="806.73,1008.18,-27.55 806.73,1008.12,-27.08 808.72,1008.02,-27.08 810.62,1006.03,-27.08 810.63,1004.03,-27.08 810.66,1004.03,-27.44 809.38,1004.14,-27.08 808.36,1004.48,-27.08 807.59,1005.05,-27.08 807.06,1005.84,-27.08 806.77,1006.87,-27.08"/>
    </edge>
    <edge id=":10_w2" function="walkingarea">
        <lane id=":10_w2_0" index="0" allow="pedestrian" speed="1.00" length="3.74" width="4.00" shape="810.72,991.23,-27.44 810.68,991.23,-27.08 810.69,989.23,-27.08 808.05,986.84,-27.08 806.05,986.87,-27.08 806.05,986.82,-27.51 806.19,988.19,-27.08 806.58,989.28,-27.08 807.23,990.13,-27.08 808.13,990.74,-27.08 809.28,991.10,-27.08"/>
    </edge>
    <edge id=":10_w3" function="walkingarea">
        <lane id=":10_w3_0" index="0" allow="pedestrian" speed="1.00" length="3.31" width="4.00" shape="793.25,986.97,-27.50 793.25,987.01,-27.08 791.25,987.04,-27.08 789.27,989.00,-27.08 789.24,991.00,-27.08 789.02,991.00,-27.98 790.48,990.91,-27.08 791.49,990.59,-27.08 792.27,990.04,-27.08 792.82,989.26,-27.08 793.15,988.25,-27.08"/>
    </edge>
    <edge id=":1009_0" function="internal">
        <lane id=":1009_0_0" index="0" disallow="pedestrian" speed="13.89" length="20.58" shape="1196.94,807.67,11.07 1196.57,787.13,11.07"/>
        <lane id=":1009_0_1" index="1" disallow="pedestrian" speed="13.89" length="20.58" shape="1200.14,807.64,11.07 1199.77,787.04,11.07"/>
    </edge>
    <edge id=":1009_2" function="internal">
        <lane id=":1009_2_0" index="0" disallow="pedestrian" speed="9.25" length="6.86" shape="1200.14,807.64,11.07 1200.86,802.34,11.07 1201.63,801.04,11.07"/>
    </edge>
    <edge id=":1009_8" function="internal">
        <lane id=":1009_8_0" index="0" disallow="pedestrian" speed="9.25" length="12.65" shape="1201.63,801.04,11.07 1203.10,798.56,11.07 1206.88,796.30,11.07 1212.18,795.57,11.07"/>
    </edge>
    <edge id=":1009_3" function="internal">
        <lane id=":1009_3_0" index="0" disallow="pedestrian" speed="6.49" length="9.08" shape="1212.15,801.97,11.07 1209.68,802.31,11.07 1207.92,803.36,11.07 1206.88,805.12,11.07 1206.54,807.59,11.07"/>
    </edge>
    <edge id=":1009_4" function="internal">
        <lane id=":1009_4_0" index="0" disallow="pedestrian" speed="9.36" length="19.32" shape="1212.16,798.77,11.07 1206.87,798.01,11.07 1203.03,795.80,11.07 1200.67,792.15,11.07 1199.77,787.04,11.07"/>
    </edge>
    <edge id=":1009_5" function="internal">
        <lane id=":1009_5_0" index="0" disallow="pedestrian" speed="6.65" length="5.16" shape="1206.17,786.86,11.07 1206.60,789.26,11.07 1207.75,790.98,11.07 1208.33,791.30,11.07"/>
    </edge>
    <edge id=":1009_6" function="internal">
        <lane id=":1009_6_0" index="0" disallow="pedestrian" speed="13.89" length="20.70" shape="1206.17,786.86,11.07 1206.54,807.59,11.07"/>
        <lane id=":1009_6_1" index="1" disallow="pedestrian" speed="13.89" length="20.70" shape="1202.97,786.95,11.07 1203.34,807.62,11.07"/>
    </edge>
    <edge id=":1009_9" function="internal">
        <lane id=":1009_9_0" index="0" disallow="pedestrian" speed="6.65" length="4.08" shape="1208.33,791.30,11.07 1209.62,792.01,11.07 1212.20,792.37,11.07"/>
    </edge>
    <edge id=":1009_c0" function="crossing" crossingEdges="1992 -1992">
        <lane id=":1009_c0_0" index="0" allow="pedestrian" speed="1.00" length="12.80" width="4.00" shape="1208.13,805.58,11.11 1195.33,805.69,11.11"/>
    </edge>
    <edge id=":1009_c1" function="crossing" crossingEdges="1991 -1991">
        <lane id=":1009_c1_0" index="0" allow="pedestrian" speed="1.00" length="12.80" width="4.00" shape="1210.33,790.76,11.76 1210.26,803.56,11.76"/>
    </edge>
    <edge id=":1009_c2" function="crossing" crossingEdges="-1010 1010">
        <lane id=":1009_c2_0" index="0" allow="pedestrian" speed="1.00" length="12.80" width="4.00" shape="1195.03,789.15,11.32 1207.83,788.80,11.32"/>
    </edge>
    <edge id=":1009_w0" function="walkingarea">
        <lane id=":1009_w0_0" index="0" allow="pedestrian" speed="1.00" length="13.10" width="4.00" shape="1195.09,791.15,11.32 1194.97,787.16,11.32 1194.98,787.17,11.07 1192.98,787.23,11.07 1193.34,807.70,11.07 1195.34,807.69,11.07 1195.31,803.69,11.11"/>
    </edge>
    <edge id=":1009_w1" function="walkingarea">
        <lane id=":1009_w1_0" index="0" allow="pedestrian" speed="1.00" length="3.30" width="4.00" shape="1208.14,807.58,11.07 1210.14,807.56,11.07 1212.13,805.57,11.07 1212.14,803.57,11.07 1212.26,803.57,11.76 1210.91,803.68,11.07 1209.90,804.01,11.07 1209.13,804.56,11.07 1208.57,805.34,11.07 1208.25,806.35,11.07"/>
    </edge>
    <edge id=":1009_w2" function="walkingarea">
        <lane id=":1009_w2_0" index="0" allow="pedestrian" speed="1.00" length="3.48" width="4.00" shape="1212.33,790.77,11.76 1212.21,790.77,11.07 1212.22,788.77,11.07 1209.77,786.76,11.07 1207.77,786.81,11.07 1207.77,786.80,11.32 1207.92,788.02,11.07 1208.31,789.00,11.07 1208.93,789.77,11.07 1209.79,790.32,11.07 1210.88,790.65,11.07"/>
    </edge>
    <edge id=":1015_0" function="internal">
        <lane id=":1015_0_0" index="0" disallow="pedestrian" speed="13.89" length="21.41" shape="1309.08,704.59,9.78 1287.59,704.08,9.78"/>
        <lane id=":1015_0_1" index="1" disallow="pedestrian" speed="13.89" length="21.41" shape="1309.07,701.39,9.78 1287.75,700.88,9.78"/>
    </edge>
    <edge id=":1015_2" function="internal">
        <lane id=":1015_2_0" index="0" disallow="pedestrian" speed="9.33" length="7.23" shape="1309.07,701.39,9.78 1303.80,700.63,9.78 1302.18,699.63,9.78"/>
    </edge>
    <edge id=":1015_8" function="internal">
        <lane id=":1015_8_0" index="0" disallow="pedestrian" speed="9.33" length="12.48" shape="1302.18,699.63,9.78 1300.04,698.31,9.78 1297.79,694.43,9.78 1297.04,689.00,9.78"/>
    </edge>
    <edge id=":1015_3" function="internal">
        <lane id=":1015_3_0" index="0" disallow="pedestrian" speed="6.60" length="9.36" shape="1303.44,689.00,9.78 1303.79,691.63,9.78 1304.84,693.50,9.78 1306.59,694.62,9.78 1309.05,694.99,9.78"/>
    </edge>
    <edge id=":1015_4" function="internal">
        <lane id=":1015_4_0" index="0" disallow="pedestrian" speed="9.22" length="19.88" shape="1300.24,689.00,9.78 1299.46,694.43,9.78 1297.11,698.22,9.78 1293.21,700.37,9.78 1287.75,700.88,9.78"/>
    </edge>
    <edge id=":1015_5" function="internal">
        <lane id=":1015_5_0" index="0" disallow="pedestrian" speed="6.45" length="4.91" shape="1288.07,694.49,9.78 1290.59,694.26,9.78 1292.39,693.26,9.78 1292.56,692.99,9.78"/>
    </edge>
    <edge id=":1015_6" function="internal">
        <lane id=":1015_6_0" index="0" disallow="pedestrian" speed="13.89" length="21.07" shape="1288.07,694.49,9.78 1309.05,694.99,9.78"/>
        <lane id=":1015_6_1" index="1" disallow="pedestrian" speed="13.89" length="21.07" shape="1287.91,697.69,9.78 1309.06,698.19,9.78"/>
    </edge>
    <edge id=":1015_9" function="internal">
        <lane id=":1015_9_0" index="0" disallow="pedestrian" speed="6.45" length="4.28" shape="1292.56,692.99,9.78 1293.48,691.51,9.78 1293.84,689.00,9.78"/>
    </edge>
    <edge id=":1015_c0" function="crossing" crossingEdges="1487 -1487">
        <lane id=":1015_c0_0" index="0" allow="pedestrian" speed="1.00" length="12.80" width="4.00" shape="1307.06,693.39,10.03 1307.10,706.19,10.03"/>
    </edge>
    <edge id=":1015_c1" function="crossing" crossingEdges="1489 -1489">
        <lane id=":1015_c1_0" index="0" allow="pedestrian" speed="1.00" length="12.80" width="4.00" shape="1292.24,690.99,9.87 1305.04,691.00,9.87"/>
    </edge>
    <edge id=":1015_c2" function="crossing" crossingEdges="-1016 1016">
        <lane id=":1015_c2_0" index="0" allow="pedestrian" speed="1.00" length="12.80" width="4.00" shape="1289.50,705.78,10.00 1290.13,692.99,10.00"/>
    </edge>
    <edge id=":1015_w0" function="walkingarea">
        <lane id=":1015_w0_0" index="0" allow="pedestrian" speed="1.00" length="13.82" width="4.00" shape="1291.50,705.87,10.00 1287.50,705.68,10.00 1287.52,705.68,9.78 1287.42,707.68,9.78 1309.09,708.19,9.78 1309.08,706.19,9.78 1309.10,706.19,10.03 1305.10,706.20,10.03"/>
    </edge>
    <edge id=":1015_w1" function="walkingarea">
        <lane id=":1015_w1_0" index="0" allow="pedestrian" speed="1.00" length="3.47" width="4.00" shape="1309.06,693.39,10.03 1309.04,693.39,9.78 1309.04,691.39,9.78 1307.04,689.01,9.78 1305.04,689.01,9.78 1305.15,690.35,9.78 1305.48,691.45,9.78 1306.04,692.30,9.78 1306.82,692.91,9.78 1307.82,693.27,9.78"/>
    </edge>
    <edge id=":1015_w2" function="walkingarea">
        <lane id=":1015_w2_0" index="0" allow="pedestrian" speed="1.00" length="3.31" width="4.00" shape="1292.24,689.00,9.78 1290.24,688.99,9.78 1288.24,690.90,9.78 1288.14,692.89,9.78 1288.13,692.89,10.00 1289.39,692.84,9.78 1290.42,692.55,9.78 1291.22,692.02,9.78 1291.78,691.25,9.78 1292.13,690.24,9.78"/>
    </edge>
    <edge id=":1021_0" function="internal">
        <lane id=":1021_0_0" index="0" disallow="pedestrian" speed="6.98" length="5.84" shape="1212.46,602.02,1.92 1209.79,602.49,1.92 1207.86,603.71,1.92 1207.42,604.43,1.92"/>
    </edge>
    <edge id=":1021_1" function="internal">
        <lane id=":1021_1_0" index="0" disallow="pedestrian" speed="13.89" length="21.38" shape="1212.46,602.02,1.92 1191.05,602.42,1.92"/>
        <lane id=":1021_1_1" index="1" disallow="pedestrian" speed="13.89" length="21.38" shape="1212.36,598.82,1.92 1191.03,599.22,1.92"/>
    </edge>
    <edge id=":1021_3" function="internal">
        <lane id=":1021_3_0" index="0" disallow="pedestrian" speed="9.24" length="7.15" shape="1212.36,598.82,1.92 1207.01,598.22,1.92 1205.48,597.35,1.92"/>
    </edge>
    <edge id=":1021_16" function="internal">
        <lane id=":1021_16_0" index="0" disallow="pedestrian" speed="6.98" length="4.22" shape="1207.42,604.43,1.92 1206.67,605.68,1.92 1206.21,608.40,1.92"/>
    </edge>
    <edge id=":1021_17" function="internal">
        <lane id=":1021_17_0" index="0" disallow="pedestrian" speed="9.24" length="12.44" shape="1205.48,597.35,1.92 1203.17,596.04,1.92 1200.85,592.29,1.92 1200.05,586.97,1.92"/>
    </edge>
    <edge id=":1021_4" function="internal">
        <lane id=":1021_4_0" index="0" disallow="pedestrian" speed="6.48" length="9.11" shape="1206.45,586.92,1.92 1206.82,589.39,1.92 1207.90,591.13,1.92 1209.68,592.15,1.92 1212.17,592.43,1.92"/>
    </edge>
    <edge id=":1021_5" function="internal">
        <lane id=":1021_5_0" index="0" disallow="pedestrian" speed="13.89" length="21.42" shape="1206.45,586.92,1.92 1206.21,608.40,1.92"/>
        <lane id=":1021_5_1" index="1" disallow="pedestrian" speed="13.89" length="21.42" shape="1203.25,586.94,1.92 1203.01,608.30,1.92"/>
    </edge>
    <edge id=":1021_7" function="internal">
        <lane id=":1021_7_0" index="0" disallow="pedestrian" speed="9.35" length="19.76" shape="1203.25,586.94,1.92 1202.52,592.28,1.92 1200.24,596.11,1.92 1196.41,598.42,1.92 1191.03,599.22,1.92"/>
    </edge>
    <edge id=":1021_8" function="internal">
        <lane id=":1021_8_0" index="0" disallow="pedestrian" speed="6.63" length="5.16" shape="1190.98,592.82,1.92 1193.56,592.44,1.92 1195.40,591.34,1.92 1195.61,590.99,1.92"/>
    </edge>
    <edge id=":1021_9" function="internal">
        <lane id=":1021_9_0" index="0" disallow="pedestrian" speed="13.89" length="21.23" shape="1190.98,592.82,1.92 1212.17,592.43,1.92"/>
        <lane id=":1021_9_1" index="1" disallow="pedestrian" speed="13.89" length="21.23" shape="1191.00,596.02,1.92 1212.27,595.62,1.92"/>
    </edge>
    <edge id=":1021_11" function="internal">
        <lane id=":1021_11_0" index="0" disallow="pedestrian" speed="9.23" length="6.88" shape="1191.00,596.02,1.92 1196.39,596.75,1.92 1197.62,597.49,1.92"/>
    </edge>
    <edge id=":1021_18" function="internal">
        <lane id=":1021_18_0" index="0" disallow="pedestrian" speed="6.63" length="4.27" shape="1195.61,590.99,1.92 1196.50,589.53,1.92 1196.85,586.99,1.92"/>
    </edge>
    <edge id=":1021_19" function="internal">
        <lane id=":1021_19_0" index="0" disallow="pedestrian" speed="9.23" length="12.88" shape="1197.62,597.49,1.92 1200.19,599.05,1.92 1202.40,602.90,1.92 1203.01,608.30,1.92"/>
    </edge>
    <edge id=":1021_12" function="internal">
        <lane id=":1021_12_0" index="0" disallow="pedestrian" speed="6.47" length="9.15" shape="1196.61,608.11,1.92 1196.33,605.60,1.92 1195.31,603.82,1.92 1193.55,602.76,1.92 1191.05,602.42,1.92"/>
    </edge>
    <edge id=":1021_13" function="internal">
        <lane id=":1021_13_0" index="0" disallow="pedestrian" speed="13.89" length="21.18" shape="1196.61,608.11,1.92 1196.85,586.99,1.92"/>
        <lane id=":1021_13_1" index="1" disallow="pedestrian" speed="13.89" length="21.18" shape="1199.81,608.21,1.92 1200.05,586.97,1.92"/>
    </edge>
    <edge id=":1021_15" function="internal">
        <lane id=":1021_15_0" index="0" disallow="pedestrian" speed="9.60" length="19.93" shape="1199.81,608.21,1.92 1200.73,602.84,1.92 1203.11,598.95,1.92 1206.95,596.55,1.92 1212.27,595.62,1.92"/>
    </edge>
    <edge id=":1021_c0" function="crossing" crossingEdges="1490 -1490">
        <lane id=":1021_c0_0" index="0" allow="pedestrian" speed="1.00" length="12.80" width="4.00" shape="1210.12,590.89,1.82 1210.51,603.68,1.82"/>
    </edge>
    <edge id=":1021_c1" function="crossing" crossingEdges="1498 -1498">
        <lane id=":1021_c1_0" index="0" allow="pedestrian" speed="1.00" length="12.80" width="4.00" shape="1195.26,589.00,2.10 1208.06,588.89,2.10"/>
    </edge>
    <edge id=":1021_c2" function="crossing" crossingEdges="1494 -1494">
        <lane id=":1021_c2_0" index="0" allow="pedestrian" speed="1.00" length="12.80" width="4.00" shape="1193.06,604.00,1.88 1192.97,591.20,1.88"/>
    </edge>
    <edge id=":1021_c3" function="crossing" crossingEdges="-1022 1022">
        <lane id=":1021_c3_0" index="0" allow="pedestrian" speed="1.00" length="12.80" width="4.00" shape="1207.87,606.45,1.95 1195.07,606.06,1.95"/>
    </edge>
    <edge id=":1021_w0" function="walkingarea">
        <lane id=":1021_w0_0" index="0" allow="pedestrian" speed="1.00" length="3.96" width="4.00" shape="1207.81,608.45,1.92 1209.80,608.51,1.92 1212.57,605.62,1.92 1212.51,603.62,1.92 1212.51,603.62,1.82 1211.11,603.79,1.92 1209.96,604.22,1.92 1209.05,604.90,1.92 1208.39,605.83,1.92 1207.98,607.01,1.92"/>
    </edge>
    <edge id=":1021_w1" function="walkingarea">
        <lane id=":1021_w1_0" index="0" allow="pedestrian" speed="1.00" length="3.30" width="4.00" shape="1212.12,590.83,1.82 1212.12,590.83,1.92 1212.06,588.83,1.92 1210.05,586.89,1.92 1208.05,586.90,1.92 1208.05,586.90,2.10 1208.17,588.14,1.92 1208.51,589.14,1.92 1209.08,589.91,1.92 1209.87,590.44,1.92 1210.88,590.75,1.92"/>
    </edge>
    <edge id=":1021_w2" function="walkingarea">
        <lane id=":1021_w2_0" index="0" allow="pedestrian" speed="1.00" length="3.51" width="4.00" shape="1195.25,587.00,2.10 1195.25,587.01,1.92 1193.25,587.02,1.92 1190.96,589.22,1.92 1190.97,591.22,1.92 1192.29,591.09,1.92 1193.36,590.74,1.92 1194.19,590.15,1.92 1194.79,589.33,1.92 1195.14,588.28,1.92"/>
    </edge>
    <edge id=":1021_w3" function="walkingarea">
        <lane id=":1021_w3_0" index="0" allow="pedestrian" speed="1.00" length="3.31" width="4.00" shape="1191.06,604.02,1.92 1191.07,606.02,1.92 1193.01,608.00,1.92 1195.01,608.06,1.92 1194.94,606.82,1.92 1194.63,605.80,1.92 1194.08,605.01,1.92 1193.31,604.45,1.92 1192.30,604.12,1.92"/>
    </edge>
    <edge id=":1129_0" function="internal">
        <lane id=":1129_0_0" index="0" disallow="pedestrian" speed="6.57" length="9.19" shape="695.15,808.31,-9.11 694.78,805.78,-9.11 693.72,803.97,-9.11 691.96,802.88,-9.11 689.52,802.53,-9.11"/>
    </edge>
    <edge id=":1129_1" function="internal">
        <lane id=":1129_1_0" index="0" disallow="pedestrian" speed="13.89" length="21.13" shape="695.15,808.31,-9.11 695.26,787.14,-9.11"/>
        <lane id=":1129_1_1" index="1" disallow="pedestrian" speed="13.89" length="21.13" shape="698.35,808.29,-9.11 698.46,787.20,-9.11"/>
    </edge>
    <edge id=":1129_3" function="internal">
        <lane id=":1129_3_0" index="0" disallow="pedestrian" speed="9.24" length="19.58" shape="698.35,808.29,-9.11 699.07,802.95,-9.11 701.32,799.17,-9.11 705.12,796.92,-9.11 710.45,796.22,-9.11"/>
    </edge>
    <edge id=":1129_4" function="internal">
        <lane id=":1129_4_0" index="0" disallow="pedestrian" speed="6.48" length="4.82" shape="710.37,802.62,-9.11 707.89,802.95,-9.11 706.13,803.99,-9.11 705.99,804.22,-9.11"/>
    </edge>
    <edge id=":1129_5" function="internal">
        <lane id=":1129_5_0" index="0" disallow="pedestrian" speed="13.89" length="20.88" shape="710.37,802.62,-9.11 689.52,802.53,-9.11"/>
        <lane id=":1129_5_1" index="1" disallow="pedestrian" speed="13.89" length="20.88" shape="710.41,799.42,-9.11 689.51,799.33,-9.11"/>
    </edge>
    <edge id=":1129_7" function="internal">
        <lane id=":1129_7_0" index="0" disallow="pedestrian" speed="9.27" length="6.93" shape="710.41,799.42,-9.11 705.10,798.60,-9.11 703.77,797.79,-9.11"/>
    </edge>
    <edge id=":1129_16" function="internal">
        <lane id=":1129_16_0" index="0" disallow="pedestrian" speed="6.48" length="4.28" shape="705.99,804.22,-9.11 705.08,805.75,-9.11 704.75,808.23,-9.11"/>
    </edge>