<?xml version="1.0" encoding="UTF-8"?>

<!-- generated on Wed Mar 27 16:25:30 2019 by Eclipse SUMO netgenerate Version v1_1_0+1422-716f49613d
<configuration xmlns:xsi="http://www.w3.org/2001/XMLSchema-instance" xsi:noNamespaceSchemaLocation="http://sumo.dlr.de/xsd/netgenerateConfiguration.xsd">

    <random_network>
        <rand value="true"/>
        <rand.iterations value="200"/>
        <rand.max-distance value="100"/>
        <rand.min-distance value="100"/>
        <rand.grid value="true"/>
    </random_network>

    <output>
        <output-file value="random.net.xml"/>
    </output>

    <building_defaults>
        <default.lanenumber value="2"/>
        <default-junction-type value="traffic_light"/>
    </building_defaults>

    <tls_building>
        <tls.default-type value="actuated"/>
    </tls_building>

    <junctions>
        <no-turnarounds.except-deadend value="true"/>
    </junctions>

    <pedestrian>
        <sidewalks.guess value="true"/>
        <crossings.guess value="true"/>
    </pedestrian>

</configuration>
-->

<net version="1.1" junctionCornerDetail="5" walkingareas="true" limitTurnSpeed="5.50" xmlns:xsi="http://www.w3.org/2001/XMLSchema-instance" xsi:noNamespaceSchemaLocation="http://sumo.dlr.de/xsd/net_file.xsd">

    <location netOffset="900.00,1000.00" convBoundary="0.00,0.00,1900.00,1800.00" origBoundary="-900.00,-1000.00,1000.00,800.00" projParameter="!"/>

    <edge id=":1_0" function="internal">
        <lane id=":1_0_0" index="0" disallow="pedestrian" speed="6.51" length="4.75" shape="895.20,1010.40 894.85,1007.95 893.80,1006.20 893.60,1006.08"/>
    </edge>
    <edge id=":1_1" function="internal">
        <lane id=":1_1_0" index="0" disallow="pedestrian" speed="13.89" length="20.80" shape="895.20,1010.40 895.20,989.60"/>
        <lane id=":1_1_1" index="1" disallow="pedestrian" speed="13.89" length="20.80" shape="898.40,1010.40 898.40,989.60"/>
    </edge>
    <edge id=":1_3" function="internal">
        <lane id=":1_3_0" index="0" disallow="pedestrian" speed="9.26" length="6.96" shape="898.40,1010.40 899.15,1005.15 900.00,1003.73"/>
    </edge>
    <edge id=":1_16" function="internal">
        <lane id=":1_16_0" index="0" disallow="pedestrian" speed="6.51" length="4.28" shape="893.60,1006.08 892.05,1005.15 889.60,1004.80"/>
    </edge>
    <edge id=":1_17" function="internal">
        <lane id=":1_17_0" index="0" disallow="pedestrian" speed="9.26" length="12.40" shape="900.00,1003.73 901.40,1001.40 905.15,999.15 910.40,998.40"/>
    </edge>
    <edge id=":1_4" function="internal">
        <lane id=":1_4_0" index="0" disallow="pedestrian" speed="6.51" length="4.75" shape="910.40,1004.80 907.95,1005.15 906.20,1006.20 906.08,1006.40"/>
    </edge>
    <edge id=":1_5" function="internal">
        <lane id=":1_5_0" index="0" disallow="pedestrian" speed="13.89" length="20.80" shape="910.40,1004.80 889.60,1004.80"/>
        <lane id=":1_5_1" index="1" disallow="pedestrian" speed="13.89" length="20.80" shape="910.40,1001.60 889.60,1001.60"/>
    </edge>
    <edge id=":1_7" function="internal">
        <lane id=":1_7_0" index="0" disallow="pedestrian" speed="9.26" length="6.96" shape="910.40,1001.60 905.15,1000.85 903.73,1000.00"/>
    </edge>
    <edge id=":1_18" function="internal">
        <lane id=":1_18_0" index="0" disallow="pedestrian" speed="6.51" length="4.28" shape="906.08,1006.40 905.15,1007.95 904.80,1010.40"/>
    </edge>
    <edge id=":1_19" function="internal">
        <lane id=":1_19_0" index="0" disallow="pedestrian" speed="9.26" length="12.40" shape="903.73,1000.00 901.40,998.60 899.15,994.85 898.40,989.60"/>
    </edge>
    <edge id=":1_8" function="internal">
        <lane id=":1_8_0" index="0" disallow="pedestrian" speed="6.51" length="4.75" shape="904.80,989.60 905.15,992.05 906.20,993.80 906.40,993.92"/>
    </edge>
    <edge id=":1_9" function="internal">
        <lane id=":1_9_0" index="0" disallow="pedestrian" speed="13.89" length="20.80" shape="904.80,989.60 904.80,1010.40"/>
        <lane id=":1_9_1" index="1" disallow="pedestrian" speed="13.89" length="20.80" shape="901.60,989.60 901.60,1010.40"/>
    </edge>
    <edge id=":1_11" function="internal">
        <lane id=":1_11_0" index="0" disallow="pedestrian" speed="9.26" length="6.96" shape="901.60,989.60 900.85,994.85 900.00,996.27"/>
    </edge>
    <edge id=":1_20" function="internal">
        <lane id=":1_20_0" index="0" disallow="pedestrian" speed="6.51" length="4.28" shape="906.40,993.92 907.95,994.85 910.40,995.20"/>
    </edge>
    <edge id=":1_21" function="internal">
        <lane id=":1_21_0" index="0" disallow="pedestrian" speed="9.26" length="12.40" shape="900.00,996.27 898.60,998.60 894.85,1000.85 889.60,1001.60"/>
    </edge>
    <edge id=":1_12" function="internal">
        <lane id=":1_12_0" index="0" disallow="pedestrian" speed="6.51" length="4.75" shape="889.60,995.20 892.05,994.85 893.80,993.80 893.92,993.60"/>
    </edge>
    <edge id=":1_13" function="internal">
        <lane id=":1_13_0" index="0" disallow="pedestrian" speed="13.89" length="20.80" shape="889.60,995.20 910.40,995.20"/>
        <lane id=":1_13_1" index="1" disallow="pedestrian" speed="13.89" length="20.80" shape="889.60,998.40 910.40,998.40"/>
    </edge>
    <edge id=":1_15" function="internal">
        <lane id=":1_15_0" index="0" disallow="pedestrian" speed="9.26" length="6.96" shape="889.60,998.40 894.85,999.15 896.27,1000.00"/>
    </edge>
    <edge id=":1_22" function="internal">
        <lane id=":1_22_0" index="0" disallow="pedestrian" speed="6.51" length="4.28" shape="893.92,993.60 894.85,992.05 895.20,989.60"/>
    </edge>
    <edge id=":1_23" function="internal">
        <lane id=":1_23_0" index="0" disallow="pedestrian" speed="9.26" length="12.40" shape="896.27,1000.00 898.60,1001.40 900.85,1005.15 901.60,1010.40"/>
    </edge>
    <edge id=":1_c0" function="crossing" crossingEdges="15 -15">
        <lane id=":1_c0_0" index="0" allow="pedestrian" speed="1.00" length="12.80" width="4.00" shape="906.40,1008.40 893.60,1008.40"/>
    </edge>
    <edge id=":1_c1" function="crossing" crossingEdges="5 -5">
        <lane id=":1_c1_0" index="0" allow="pedestrian" speed="1.00" length="12.80" width="4.00" shape="908.40,993.60 908.40,1006.40"/>
    </edge>
    <edge id=":1_c2" function="crossing" crossingEdges="3 -3">
        <lane id=":1_c2_0" index="0" allow="pedestrian" speed="1.00" length="12.80" width="4.00" shape="893.60,991.60 906.40,991.60"/>
    </edge>
    <edge id=":1_c3" function="crossing" crossingEdges="11 -11">
        <lane id=":1_c3_0" index="0" allow="pedestrian" speed="1.00" length="12.80" width="4.00" shape="891.60,1006.40 891.60,993.60"/>
    </edge>
    <edge id=":1_w0" function="walkingarea">
        <lane id=":1_w0_0" index="0" allow="pedestrian" speed="1.00" length="3.30" width="4.00" shape="889.60,1006.40 889.60,1008.40 891.60,1010.40 893.60,1010.40 893.49,1009.18 893.16,1008.18 892.60,1007.40 891.82,1006.84 890.82,1006.51"/>
    </edge>
    <edge id=":1_w1" function="walkingarea">
        <lane id=":1_w1_0" index="0" allow="pedestrian" speed="1.00" length="3.30" width="4.00" shape="906.40,1010.40 908.40,1010.40 910.40,1008.40 910.40,1006.40 909.18,1006.51 908.18,1006.84 907.40,1007.40 906.84,1008.18 906.51,1009.18"/>
    </edge>
    <edge id=":1_w2" function="walkingarea">
        <lane id=":1_w2_0" index="0" allow="pedestrian" speed="1.00" length="3.30" width="4.00" shape="910.40,993.60 910.40,991.60 908.40,989.60 906.40,989.60 906.51,990.82 906.84,991.82 907.40,992.60 908.18,993.16 909.18,993.49"/>
    </edge>
    <edge id=":1_w3" function="walkingarea">
        <lane id=":1_w3_0" index="0" allow="pedestrian" speed="1.00" length="3.30" width="4.00" shape="893.60,989.60 891.60,989.60 889.60,991.60 889.60,993.60 890.82,993.49 891.82,993.16 892.60,992.60 893.16,991.82 893.49,990.82"/>
    </edge>
    <edge id=":10_0" function="internal">
        <lane id=":10_0_0" index="0" disallow="pedestrian" speed="6.51" length="4.75" shape="795.20,1010.40 794.85,1007.95 793.80,1006.20 793.60,1006.08"/>
    </edge>
    <edge id=":10_1" function="internal">
        <lane id=":10_1_0" index="0" disallow="pedestrian" speed="13.89" length="20.80" shape="795.20,1010.40 795.20,989.60"/>
        <lane id=":10_1_1" index="1" disallow="pedestrian" speed="13.89" length="20.80" shape="798.40,1010.40 798.40,989.60"/>
    </edge>
    <edge id=":10_3" function="internal">
        <lane id=":10_3_0" index="0" disallow="pedestrian" speed="9.26" length="6.96" shape="798.40,1010.40 799.15,1005.15 800.00,1003.73"/>
    </edge>
    <edge id=":10_16" function="internal">
        <lane id=":10_16_0" index="0" disallow="pedestrian" speed="6.51" length="4.28" shape="793.60,1006.08 792.05,1005.15 789.60,1004.80"/>
    </edge>
    <edge id=":10_17" function="internal">
        <lane id=":10_17_0" index="0" disallow="pedestrian" speed="9.26" length="12.40" shape="800.00,1003.73 801.40,1001.40 805.15,999.15 810.40,998.40"/>
    </edge>
    <edge id=":10_4" function="internal">
        <lane id=":10_4_0" index="0" disallow="pedestrian" speed="6.51" length="4.75" shape="810.40,1004.80 807.95,1005.15 806.20,1006.20 806.08,1006.40"/>
    </edge>
    <edge id=":10_5" function="internal">
        <lane id=":10_5_0" index="0" disallow="pedestrian" speed="13.89" length="20.80" shape="810.40,1004.80 789.60,1004.80"/>
        <lane id=":10_5_1" index="1" disallow="pedestrian" speed="13.89" length="20.80" shape="810.40,1001.60 789.60,1001.60"/>
    </edge>
    <edge id=":10_7" function="internal">
        <lane id=":10_7_0" index="0" disallow="pedestrian" speed="9.26" length="6.96" shape="810.40,1001.60 805.15,1000.85 803.73,1000.00"/>
    </edge>
    <edge id=":10_18" function="internal">
        <lane id=":10_18_0" index="0" disallow="pedestrian" speed="6.51" length="4.28" shape="806.08,1006.40 805.15,1007.95 804.80,1010.40"/>
    </edge>
    <edge id=":10_19" function="internal">
        <lane id=":10_19_0" index="0" disallow="pedestrian" speed="9.26" length="12.40" shape="803.73,1000.00 801.40,998.60 799.15,994.85 798.40,989.60"/>
    </edge>
    <edge id=":10_8" function="internal">
        <lane id=":10_8_0" index="0" disallow="pedestrian" speed="6.51" length="4.75" shape="804.80,989.60 805.15,992.05 806.20,993.80 806.40,993.92"/>
    </edge>
    <edge id=":10_9" function="internal">
        <lane id=":10_9_0" index="0" disallow="pedestrian" speed="13.89" length="20.80" shape="804.80,989.60 804.80,1010.40"/>
        <lane id=":10_9_1" index="1" disallow="pedestrian" speed="13.89" length="20.80" shape="801.60,989.60 801.60,1010.40"/>
    </edge>
    <edge id=":10_11" function="internal">
        <lane id=":10_11_0" index="0" disallow="pedestrian" speed="9.26" length="6.96" shape="801.60,989.60 800.85,994.85 800.00,996.27"/>
    </edge>
    <edge id=":10_20" function="internal">
        <lane id=":10_20_0" index="0" disallow="pedestrian" speed="6.51" length="4.28" shape="806.40,993.92 807.95,994.85 810.40,995.20"/>
    </edge>
    <edge id=":10_21" function="internal">
        <lane id=":10_21_0" index="0" disallow="pedestrian" speed="9.26" length="12.40" shape="800.00,996.27 798.60,998.60 794.85,1000.85 789.60,1001.60"/>
    </edge>
    <edge id=":10_12" function="internal">
        <lane id=":10_12_0" index="0" disallow="pedestrian" speed="6.51" length="4.75" shape="789.60,995.20 792.05,994.85 793.80,993.80 793.92,993.60"/>
    </edge>
    <edge id=":10_13" function="internal">
        <lane id=":10_13_0" index="0" disallow="pedestrian" speed="13.89" length="20.80" shape="789.60,995.20 810.40,995.20"/>
        <lane id=":10_13_1" index="1" disallow="pedestrian" speed="13.89" length="20.80" shape="789.60,998.40 810.40,998.40"/>
    </edge>
    <edge id=":10_15" function="internal">
        <lane id=":10_15_0" index="0" disallow="pedestrian" speed="9.26" length="6.96" shape="789.60,998.40 794.85,999.15 796.27,1000.00"/>
    </edge>
    <edge id=":10_22" function="internal">
        <lane id=":10_22_0" index="0" disallow="pedestrian" speed="6.51" length="4.28" shape="793.92,993.60 794.85,992.05 795.20,989.60"/>
    </edge>
    <edge id=":10_23" function="internal">
        <lane id=":10_23_0" index="0" disallow="pedestrian" speed="9.26" length="12.40" shape="796.27,1000.00 798.60,1001.40 800.85,1005.15 801.60,1010.40"/>
    </edge>
    <edge id=":10_c0" function="crossing" crossingEdges="29 -29">
        <lane id=":10_c0_0" index="0" allow="pedestrian" speed="1.00" length="12.80" width="4.00" shape="806.40,1008.40 793.60,1008.40"/>
    </edge>
    <edge id=":10_c1" function="crossing" crossingEdges="-11 11">
        <lane id=":10_c1_0" index="0" allow="pedestrian" speed="1.00" length="12.80" width="4.00" shape="808.40,993.60 808.40,1006.40"/>
    </edge>
    <edge id=":10_c2" function="crossing" crossingEdges="27 -27">
        <lane id=":10_c2_0" index="0" allow="pedestrian" speed="1.00" length="12.80" width="4.00" shape="793.60,991.60 806.40,991.60"/>
    </edge>
    <edge id=":10_c3" function="crossing" crossingEdges="41 -41">
        <lane id=":10_c3_0" index="0" allow="pedestrian" speed="1.00" length="12.80" width="4.00" shape="791.60,1006.40 791.60,993.60"/>
    </edge>
    <edge id=":10_w0" function="walkingarea">
        <lane id=":10_w0_0" index="0" allow="pedestrian" speed="1.00" length="3.30" width="4.00" shape="789.60,1006.40 789.60,1008.40 791.60,1010.40 793.60,1010.40 793.49,1009.18 793.16,1008.18 792.60,1007.40 791.82,1006.84 790.82,1006.51"/>
    </edge>
    <edge id=":10_w1" function="walkingarea">
        <lane id=":10_w1_0" index="0" allow="pedestrian" speed="1.00" length="3.30" width="4.00" shape="806.40,1010.40 808.40,1010.40 810.40,1008.40 810.40,1006.40 809.18,1006.51 808.18,1006.84 807.40,1007.40 806.84,1008.18 806.51,1009.18"/>
    </edge>
    <edge id=":10_w2" function="walkingarea">
        <lane id=":10_w2_0" index="0" allow="pedestrian" speed="1.00" length="3.30" width="4.00" shape="810.40,993.60 810.40,991.60 808.40,989.60 806.40,989.60 806.51,990.82 806.84,991.82 807.40,992.60 808.18,993.16 809.18,993.49"/>
    </edge>
    <edge id=":10_w3" function="walkingarea">
        <lane id=":10_w3_0" index="0" allow="pedestrian" speed="1.00" length="3.30" width="4.00" shape="793.60,989.60 791.60,989.60 789.60,991.60 789.60,993.60 790.82,993.49 791.82,993.16 792.60,992.60 793.16,991.82 793.49,990.82"/>
    </edge>
    <edge id=":1009_0" function="internal">
        <lane id=":1009_0_0" index="0" disallow="pedestrian" speed="13.89" length="20.80" shape="1195.20,810.40 1195.20,789.60"/>
        <lane id=":1009_0_1" index="1" disallow="pedestrian" speed="13.89" length="20.80" shape="1198.40,810.40 1198.40,789.60"/>
    </edge>
    <edge id=":1009_2" function="internal">
        <lane id=":1009_2_0" index="0" disallow="pedestrian" speed="9.26" length="6.96" shape="1198.40,810.40 1199.15,805.15 1200.00,803.73"/>
    </edge>
    <edge id=":1009_9" function="internal">
        <lane id=":1009_9_0" index="0" disallow="pedestrian" speed="9.26" length="12.40" shape="1200.00,803.73 1201.40,801.40 1205.15,799.15 1210.40,798.40"/>
    </edge>
    <edge id=":1009_3" function="internal">
        <lane id=":1009_3_0" index="0" disallow="pedestrian" speed="6.51" length="4.75" shape="1210.40,804.80 1207.95,805.15 1206.20,806.20 1206.08,806.40"/>
    </edge>
    <edge id=":1009_4" function="internal">
        <lane id=":1009_4_0" index="0" disallow="pedestrian" speed="8.00" length="10.13" shape="1210.40,801.60 1206.55,802.15 1203.80,803.80 1202.24,806.40"/>
    </edge>
    <edge id=":1009_5" function="internal">
        <lane id=":1009_5_0" index="0" disallow="pedestrian" speed="9.26" length="15.31" shape="1210.40,801.60 1205.15,800.85 1201.40,798.60 1199.15,794.85 1198.97,793.60"/>
    </edge>
    <edge id=":1009_10" function="internal">
        <lane id=":1009_10_0" index="0" disallow="pedestrian" speed="6.51" length="4.28" shape="1206.08,806.40 1205.15,807.95 1204.80,810.40"/>
    </edge>
    <edge id=":1009_11" function="internal">
        <lane id=":1009_11_0" index="0" disallow="pedestrian" speed="8.00" length="4.06" shape="1202.24,806.40 1202.15,806.55 1201.60,810.40"/>
    </edge>
    <edge id=":1009_12" function="internal">
        <lane id=":1009_12_0" index="0" disallow="pedestrian" speed="9.26" length="4.04" shape="1198.97,793.60 1198.40,789.60"/>
    </edge>
    <edge id=":1009_6" function="internal">
        <lane id=":1009_6_0" index="0" disallow="pedestrian" speed="6.51" length="4.75" shape="1204.80,789.60 1205.15,792.05 1206.20,793.80 1206.40,793.92"/>
    </edge>
    <edge id=":1009_7" function="internal">
        <lane id=":1009_7_0" index="0" disallow="pedestrian" speed="13.89" length="20.80" shape="1204.80,789.60 1204.80,810.40"/>
        <lane id=":1009_7_1" index="1" disallow="pedestrian" speed="13.89" length="20.80" shape="1201.60,789.60 1201.60,810.40"/>
    </edge>
    <edge id=":1009_13" function="internal">
        <lane id=":1009_13_0" index="0" disallow="pedestrian" speed="6.51" length="4.28" shape="1206.40,793.92 1207.95,794.85 1210.40,795.20"/>
    </edge>
    <edge id=":1009_c0" function="crossing" crossingEdges="1992 -1992">
        <lane id=":1009_c0_0" index="0" allow="pedestrian" speed="1.00" length="12.80" width="4.00" shape="1206.40,808.40 1193.60,808.40"/>
    </edge>
    <edge id=":1009_c1" function="crossing" crossingEdges="1991 -1991">
        <lane id=":1009_c1_0" index="0" allow="pedestrian" speed="1.00" length="12.80" width="4.00" shape="1208.40,793.60 1208.40,806.40"/>
    </edge>
    <edge id=":1009_c2" function="crossing" crossingEdges="-1010 1010">
        <lane id=":1009_c2_0" index="0" allow="pedestrian" speed="1.00" length="12.80" width="4.00" shape="1193.60,791.60 1206.40,791.60"/>
    </edge>
    <edge id=":1009_w0" function="walkingarea">
        <lane id=":1009_w0_0" index="0" allow="pedestrian" speed="1.00" length="13.29" width="4.00" shape="1193.60,793.60 1193.60,789.60 1191.60,789.60 1191.60,810.40 1193.60,810.40 1193.60,806.40"/>
    </edge>
    <edge id=":1009_w1" function="walkingarea">
        <lane id=":1009_w1_0" index="0" allow="pedestrian" speed="1.00" length="3.30" width="4.00" shape="1206.40,810.40 1208.40,810.40 1210.40,808.40 1210.40,806.40 1209.18,806.51 1208.18,806.84 1207.40,807.40 1206.84,808.18 1206.51,809.18"/>
    </edge>
    <edge id=":1009_w2" function="walkingarea">
        <lane id=":1009_w2_0" index="0" allow="pedestrian" speed="1.00" length="3.30" width="4.00" shape="1210.40,793.60 1210.40,791.60 1208.40,789.60 1206.40,789.60 1206.51,790.82 1206.84,791.82 1207.40,792.60 1208.18,793.16 1209.18,793.49"/>
    </edge>
    <edge id=":1015_0" function="internal">
        <lane id=":1015_0_0" index="0" disallow="pedestrian" speed="13.89" length="20.80" shape="1310.40,704.80 1289.60,704.80"/>
        <lane id=":1015_0_1" index="1" disallow="pedestrian" speed="13.89" length="20.80" shape="1310.40,701.60 1289.60,701.60"/>
    </edge>
    <edge id=":1015_2" function="internal">
        <lane id=":1015_2_0" index="0" disallow="pedestrian" speed="9.26" length="6.96" shape="1310.40,701.60 1305.15,700.85 1303.73,700.00"/>
    </edge>
    <edge id=":1015_9" function="internal">
        <lane id=":1015_9_0" index="0" disallow="pedestrian" speed="9.26" length="12.40" shape="1303.73,700.00 1301.40,698.60 1299.15,694.85 1298.40,689.60"/>
    </edge>
    <edge id=":1015_3" function="internal">
        <lane id=":1015_3_0" index="0" disallow="pedestrian" speed="6.51" length="4.75" shape="1304.80,689.60 1305.15,692.05 1306.20,693.80 1306.40,693.92"/>
    </edge>
    <edge id=":1015_4" function="internal">
        <lane id=":1015_4_0" index="0" disallow="pedestrian" speed="8.00" length="10.13" shape="1301.60,689.60 1302.15,693.45 1303.80,696.20 1306.40,697.76"/>
    </edge>
    <edge id=":1015_5" function="internal">
        <lane id=":1015_5_0" index="0" disallow="pedestrian" speed="9.26" length="15.31" shape="1301.60,689.60 1300.85,694.85 1298.60,698.60 1294.85,700.85 1293.60,701.03"/>
    </edge>
    <edge id=":1015_10" function="internal">
        <lane id=":1015_10_0" index="0" disallow="pedestrian" speed="6.51" length="4.28" shape="1306.40,693.92 1307.95,694.85 1310.40,695.20"/>
    </edge>
    <edge id=":1015_11" function="internal">
        <lane id=":1015_11_0" index="0" disallow="pedestrian" speed="8.00" length="4.06" shape="1306.40,697.76 1306.55,697.85 1310.40,698.40"/>
    </edge>
    <edge id=":1015_12" function="internal">
        <lane id=":1015_12_0" index="0" disallow="pedestrian" speed="9.26" length="4.04" shape="1293.60,701.03 1289.60,701.60"/>
    </edge>
    <edge id=":1015_6" function="internal">
        <lane id=":1015_6_0" index="0" disallow="pedestrian" speed="6.51" length="4.75" shape="1289.60,695.20 1292.05,694.85 1293.80,693.80 1293.92,693.60"/>
    </edge>
    <edge id=":1015_7" function="internal">
        <lane id=":1015_7_0" index="0" disallow="pedestrian" speed="13.89" length="20.80" shape="1289.60,695.20 1310.40,695.20"/>
        <lane id=":1015_7_1" index="1" disallow="pedestrian" speed="13.89" length="20.80" shape="1289.60,698.40 1310.40,698.40"/>
    </edge>
    <edge id=":1015_13" function="internal">
        <lane id=":1015_13_0" index="0" disallow="pedestrian" speed="6.51" length="4.28" shape="1293.92,693.60 1294.85,692.05 1295.20,689.60"/>
    </edge>
    <edge id=":1015_c0" function="crossing" crossingEdges="1487 -1487">
        <lane id=":1015_c0_0" index="0" allow="pedestrian" speed="1.00" length="12.80" width="4.00" shape="1308.40,693.60 1308.40,706.40"/>
    </edge>
    <edge id=":1015_c1" function="crossing" crossingEdges="1489 -1489">
        <lane id=":1015_c1_0" index="0" allow="pedestrian" speed="1.00" length="12.80" width="4.00" shape="1293.60,691.60 1306.40,691.60"/>
    </edge>
    <edge id=":1015_c2" function="crossing" crossingEdges="-1016 1016">
        <lane id=":1015_c2_0" index="0" allow="pedestrian" speed="1.00" length="12.80" width="4.00" shape="1291.60,706.40 1291.60,693.60"/>
    </edge>
    <edge id=":1015_w0" function="walkingarea">
        <lane id=":1015_w0_0" index="0" allow="pedestrian" speed="1.00" length="13.29" width="4.00" shape="1293.60,706.40 1289.60,706.40 1289.60,708.40 1310.40,708.40 1310.40,706.40 1306.40,706.40"/>
    </edge>
    <edge id=":1015_w1" function="walkingarea">
        <lane id=":1015_w1_0" index="0" allow="pedestrian" speed="1.00" length="3.30" width="4.00" shape="1310.40,693.60 1310.40,691.60 1308.40,689.60 1306.40,689.60 1306.51,690.82 1306.84,691.82 1307.40,692.60 1308.18,693.16 1309.18,693.49"/>
    </edge>
    <edge id=":1015_w2" function="walkingarea">
        <lane id=":1015_w2_0" index="0" allow="pedestrian" speed="1.00" length="3.30" width="4.00" shape="1293.60,689.60 1291.60,689.60 1289.60,691.60 1289.60,693.60 1290.82,693.49 1291.82,693.16 1292.60,692.60 1293.16,691.82 1293.49,690.82"/>
    </edge>
    <edge id=":1021_0" function="internal">
        <lane id=":1021_0_0" index="0" disallow="pedestrian" speed="6.51" length="4.75" shape="1195.20,610.40 1194.85,607.95 1193.80,606.20 1193.60,606.08"/>
    </edge>
    <edge id=":1021_1" function="internal">
        <lane id=":1021_1_0" index="0" disallow="pedestrian" speed="13.89" length="20.80" shape="1195.20,610.40 1195.20,589.60"/>
        <lane id=":1021_1_1" index="1" disallow="pedestrian" speed="13.89" length="20.80" shape="1198.40,610.40 1198.40,589.60"/>
    </edge>
    <edge id=":1021_3" function="internal">
        <lane id=":1021_3_0" index="0" disallow="pedestrian" speed="9.26" length="6.96" shape="1198.40,610.40 1199.15,605.15 1200.00,603.73"/>
    </edge>
    <edge id=":1021_16" function="internal">
        <lane id=":1021_16_0" index="0" disallow="pedestrian" speed="6.51" length="4.28" shape="1193.60,606.08 1192.05,605.15 1189.60,604.80"/>
    </edge>
    <edge id=":1021_17" function="internal">
        <lane id=":1021_17_0" index="0" disallow="pedestrian" speed="9.26" length="12.40" shape="1200.00,603.73 1201.40,601.40 1205.15,599.15 1210.40,598.40"/>
    </edge>
    <edge id=":1021_4" function="internal">
        <lane id=":1021_4_0" index="0" disallow="pedestrian" speed="6.51" length="4.75" shape="1210.40,604.80 1207.95,605.15 1206.20,606.20 1206.08,606.40"/>
    </edge>
    <edge id=":1021_5" function="internal">
        <lane id=":1021_5_0" index="0" disallow="pedestrian" speed="13.89" length="20.80" shape="1210.40,604.80 1189.60,604.80"/>
        <lane id=":1021_5_1" index="1" disallow="pedestrian" speed="13.89" length="20.80" shape="1210.40,601.60 1189.60,601.60"/>
    </edge>
    <edge id=":1021_7" function="internal">
        <lane id=":1021_7_0" index="0" disallow="pedestrian" speed="9.26" length="6.96" shape="1210.40,601.60 1205.15,600.85 1203.73,600.00"/>
    </edge>
    <edge id=":1021_18" function="internal">
        <lane id=":1021_18_0" index="0" disallow="pedestrian" speed="6.51" length="4.28" shape="1206.08,606.40 1205.15,607.95 1204.80,610.40"/>
    </edge>
    <edge id=":1021_19" function="internal">
        <lane id=":1021_19_0" index="0" disallow="pedestrian" speed="9.26" length="12.40" shape="1203.73,600.00 1201.40,598.60 1199.15,594.85 1198.40,589.60"/>
    </edge>
    <edge id=":1021_8" function="internal">
        <lane id=":1021_8_0" index="0" disallow="pedestrian" speed="6.51" length="4.75" shape="1204.80,589.60 1205.15,592.05 1206.20,593.80 1206.40,593.92"/>
    </edge>
    <edge id=":1021_9" function="internal">
        <lane id=":1021_9_0" index="0" disallow="pedestrian" speed="13.89" length="20.80" shape="1204.80,589.60 1204.80,610.40"/>
        <lane id=":1021_9_1" index="1" disallow="pedestrian" speed="13.89" length="20.80" shape="1201.60,589.60 1201.60,610.40"/>
    </edge>
    <edge id=":1021_11" function="internal">
        <lane id=":1021_11_0" index="0" disallow="pedestrian" speed="9.26" length="6.96" shape="1201.60,589.60 1200.85,594.85 1200.00,596.27"/>
    </edge>
    <edge id=":1021_20" function="internal">
        <lane id=":1021_20_0" index="0" disallow="pedestrian" speed="6.51" length="4.28" shape="1206.40,593.92 1207.95,594.85 1210.40,595.20"/>
    </edge>
    <edge id=":1021_21" function="internal">
        <lane id=":1021_21_0" index="0" disallow="pedestrian" speed="9.26" length="12.40" shape="1200.00,596.27 1198.60,598.60 1194.85,600.85 1189.60,601.60"/>
    </edge>
    <edge id=":1021_12" function="internal">
        <lane id=":1021_12_0" index="0" disallow="pedestrian" speed="6.51" length="4.75" shape="1189.60,595.20 1192.05,594.85 1193.80,593.80 1193.92,593.60"/>
    </edge>
    <edge id=":1021_13" function="internal">
        <lane id=":1021_13_0" index="0" disallow="pedestrian" speed="13.89" length="20.80" shape="1189.60,595.20 1210.40,595.20"/>
        <lane id=":1021_13_1" index="1" disallow="pedestrian" speed="13.89" length="20.80" shape="1189.60,598.40 1210.40,598.40"/>
    </edge>
    <edge id=":1021_15" function="internal">
        <lane id=":1021_15_0" index="0" disallow="pedestrian" speed="9.26" length="6.96" shape="1189.60,598.40 1194.85,599.15 1196.27,600.00"/>
    </edge>
    <edge id=":1021_22" function="internal">
        <lane id=":1021_22_0" index="0" disallow="pedestrian" speed="6.51" length="4.28" shape="1193.92,593.60 1194.85,592.05 1195.20,589.60"/>
    </edge>
    <edge id=":1021_23" function="internal">
        <lane id=":1021_23_0" index="0" disallow="pedestrian" speed="9.26" length="12.40" shape="1196.27,600.00 1198.60,601.40 1200.85,605.15 1201.60,610.40"/>
    </edge>
    <edge id=":1021_c0" function="crossing" crossingEdges="-1022 1022">
        <lane id=":1021_c0_0" index="0" allow="pedestrian" speed="1.00" length="12.80" width="4.00" shape="1206.40,608.40 1193.60,608.40"/>
    </edge>
    <edge id=":1021_c1" function="crossing" crossingEdges="1490 -1490">
        <lane id=":1021_c1_0" index="0" allow="pedestrian" speed="1.00" length="12.80" width="4.00" shape="1208.40,593.60 1208.40,606.40"/>
    </edge>
    <edge id=":1021_c2" function="crossing" crossingEdges="1498 -1498">
        <lane id=":1021_c2_0" index="0" allow="pedestrian" speed="1.00" length="12.80" width="4.00" shape="1193.60,591.60 1206.40,591.60"/>
    </edge>
    <edge id=":1021_c3" function="crossing" crossingEdges="1494 -1494">
        <lane id=":1021_c3_0" index="0" allow="pedestrian" speed="1.00" length="12.80" width="4.00" shape="1191.60,606.40 1191.60,593.60"/>
    </edge>
    <edge id=":1021_w0" function="walkingarea">
        <lane id=":1021_w0_0" index="0" allow="pedestrian" speed="1.00" length="3.30" width="4.00" shape="1189.60,606.40 1189.60,608.40 1191.60,610.40 1193.60,610.40 1193.49,609.18 1193.16,608.18 1192.60,607.40 1191.82,606.84 1190.82,606.51"/>
    </edge>
    <edge id=":1021_w1" function="walkingarea">
        <lane id=":1021_w1_0" index="0" allow="pedestrian" speed="1.00" length="3.30" width="4.00" shape="1206.40,610.40 1208.40,610.40 1210.40,608.40 1210.40,606.40 1209.18,606.51 1208.18,606.84 1207.40,607.40 1206.84,608.18 1206.51,609.18"/>
    </edge>
    <edge id=":1021_w2" function="walkingarea">
        <lane id=":1021_w2_0" index="0" allow="pedestrian" speed="1.00" length="3.30" width="4.00" shape="1210.40,593.60 1210.40,591.60 1208.40,589.60 1206.40,589.60 1206.51,590.82 1206.84,591.82 1207.40,592.60 1208.18,593.16 1209.18,593.49"/>
    </edge>
    <edge id=":1021_w3" function="walkingarea">
        <lane id=":1021_w3_0" index="0" allow="pedestrian" speed="1.00" length="3.30" width="4.00" shape="1193.60,589.60 1191.60,589.60 1189.60,591.60 1189.60,593.60 1190.82,593.49 1191.82,593.16 1192.60,592.60 1193.16,591.82 1193.49,590.82"/>
    </edge>
    <edge id=":1129_0" function="internal">
        <lane id=":1129_0_0" index="0" disallow="pedestrian" speed="6.51" length="4.75" shape="695.20,810.40 694.85,807.95 693.80,806.20 693.60,806.08"/>
    </edge>
    <edge id=":1129_1" function="internal">
        <lane id=":1129_1_0" index="0" disallow="pedestrian" speed="13.89" length="20.80" shape="695.20,810.40 695.20,789.60"/>