<?xml version="1.0" encoding="UTF-8"?>
<routes xmlns:xsi="http://www.w3.org/2001/XMLSchema-instance" xsi:noNamespaceSchemaLocation="http://sumo.dlr.de/xsd/routes_file.xsd">

    <vehicle id="ptw_152_tr" type="ptw" depart="2.46">
        <route edges="4274 -4275 -3538 -1872 -1267 -518 -379 -158 -43 42 372 784 1237 2346 2353 3087 3797 4652 -4652 -3797 -3087 -2353 -2346 -1237 -784 -372 -42 43 158 379 518 1267 1872 3530 4274"/>
        <stop parkingArea="parkingArea_-4652_1_70" duration="1200"/>
    </vehicle>

    <vehicle id="ptw_272_tr" type="ptw" depart="2.62">
        <route edges="-4539 -3671 -2340 -1132 -752 -402 -382 386 648 1016 1487 2016 3558 -3081 3083 3794 4650 -4650 -3794 -3083 3081 -3558 -2016 -1487 -1016 -648 -386 382 402 752 1132 2340 3671 4539 -4539"/>
        <stop parkingArea="parkingArea_4650_1_63" duration="1200"/>
    </vehicle>

    <vehicle id="ptw_283_tr" type="ptw" depart="2.97">
        <route edges="5398 6598 -6598 -5398 -4507 -3565 -1498 -1022 1010 1992 -1750 -1239 1237 2347 2384 3191 3903 4681 -4794 4808 -4808 4794 -4681 -3903 -3191 -2384 -2347 2346 -1740 1750 -1992 -1010 1022 1498 3565 4507 5398"/>
        <stop parkingArea="parkingArea_-4808_1_47" duration="1200"/>
    </vehicle>

    <vehicle id="ptw_219_tr" type="ptw" depart="5.75">
        <route edges="-4942 -4260 -3530 -1872 -1267 -518 -379 -158 -43 42 372 788 1258 1762 -1762 -1258 -788 -372 -42 43 158 379 518 1267 1872 3530 4260 4942 -4942"/>
        <stop parkingArea="parkingArea_-1762_1_52" duration="1200"/>
    </vehicle>

    <vehicle id="ptw_192_tr" type="ptw" depart="7.28">
        <route edges="3087 -3087 3081 -3558 -2738 2739 -2349 2353 3087"/>
        <stop parkingArea="parkingArea_-2738_1_61" duration="1200"/>
    </vehicle>

    <vehicle id="ptw_186_tr" type="ptw" depart="8.86">
        <route edges="4817 6034 -4254 -3530 -1872 -1267 1259 -1873 1881 2625 -2625 -1881 1873 -1259 1267 1872 3518 4149 4817"/>
        <stop parkingArea="parkingArea_2625_1_5" duration="1200"/>
    </vehicle>

    <vehicle id="ptw_540_tr" type="ptw" depart="12.24">
        <route edges="1130 -1133 -754 -402 -382 -268 -52 -24 26 372 784 1237 2347 2384 3191 -3191 -2384 -2347 -1237 -784 -372 -42 -15 3 19 51 402 752 1130"/>
        <stop parkingArea="parkingArea_-3191_1_56" duration="1200"/>
    </vehicle>

    <vehicle id="ptw_230_tr" type="ptw" depart="12.59">
        <route edges="5760 -5760 -4652 -3797 -3087 3081 -3558 -2016 -1487 1489 2858 -2858 -1489 1487 2016 3558 -3081 3087 3797 4652 5760"/>
        <stop parkingArea="parkingArea_2858_2_110" duration="1200"/>
    </vehicle>

    <vehicle id="ptw_568_tr" type="ptw" depart="17.19">
        <route edges="-2505 -1870 -1267 -518 -379 -158 -43 42 -26 24 52 268 386 648 1010 1992 -1750 -1239 -784 -372 -42 43 158 379 518 1267 1870 2505 -2505"/>
        <stop parkingArea="parkingArea_648_1_88" duration="1200"/>
    </vehicle>

    <vehicle id="ptw_464_tr" type="ptw" depart="17.27">
        <route edges="-7051 -5791 -4675 -3903 -3191 -2384 -2347 -1237 -784 -372 -42 43 158 379 518 1267 1872 3518 -3518 -1872 -1267 -518 -379 -158 -43 42 372 784 1237 2347 2384 3191 3903 4675 5791 7051 -7051"/>
        <stop parkingArea="parkingArea_3518_1_33" duration="1200"/>
    </vehicle>

    <vehicle id="ptw_543_tr" type="ptw" depart="20.19">
        <route edges="1487 -1487 -1016 1010 1992 -1750 -1239 -784 -372 -42 43 158 379 518 1267 1872 3530 4260 4948 -4948 -4260 -3530 -1872 -1267 -518 -379 -158 -43 42 372 784 1239 1750 -1992 -1010 1016 1487"/>
        <stop parkingArea="parkingArea_-4948_1_30" duration="1200"/>
    </vehicle>

    <vehicle id="ptw_148_tr" type="ptw" depart="20.62">
        <route edges="-29 27 -23 21 52 268 386 648 1016 1489 2858 -2858 -1489 -1016 -648 -386 -268 -52 -21 23 -27 29 -29"/>
        <stop parkingArea="parkingArea_2858_2_110" duration="1200"/>
    </vehicle>

    <vehicle id="ptw_281_tr" type="ptw" depart="21.98">
        <route edges="6862 -6759 -4539 -3671 -2340 -1132 -752 -402 -51 -19 -3 15 43 158 379 518 1267 1872 3538 4291 -6255 -5052 -4279 -3538 -1872 -1267 -518 -379 -158 -43 -15 3 19 51 402 752 1132 2340 3681 5650 6862"/>
        <stop parkingArea="parkingArea_-4279_1_40" duration="1200"/>
    </vehicle>

    <vehicle id="ptw_103_tr" type="ptw" depart="22.04">
        <route edges="2635 -2635 -1883 1873 -1259 -518 -379 -158 -43 42 372 784 1239 1750 -1992 -1010 1022 1498 3565 4507 5398 6598 -6598 -5398 -4507 -3565 -1498 -1022 1010 1992 -1750 -1239 -784 -372 -42 43 158 379 518 1259 -1873 1883 2635"/>
        <stop parkingArea="parkingArea_-5398_1_119" duration="1200"/>
    </vehicle>

    <vehicle id="ptw_106_tr" type="ptw" depart="25.57">
        <route edges="-7026 -5781 -4672 -3799 -3087 -2353 -2346 -1237 -784 -372 -42 43 158 379 518 1267 1872 3530 4260 -4260 -3530 -1872 -1267 -518 -379 -158 -43 42 372 784 1237 2346 2353 3087 3799 4672 5781 7026 -7026"/>
        <stop parkingArea="parkingArea_-4260_1_31" duration="1200"/>
    </vehicle>

    <vehicle id="ptw_418_tr" type="ptw" depart="26.33">
        <route edges="4274 -4275 -3538 -1872 -1267 1259 -1873 1873 -1259 1267 1872 3530 4274"/>
        <stop parkingArea="parkingArea_1873_1_13" duration="1200"/>
    </vehicle>

    <vehicle id="ptw_357_tr" type="ptw" depart="26.67">
        <route edges="4022 -3308 3302 -3195 3199 -4673 -3784 -3083 3081 -3558 -2016 1994 2748 3557 6586 -6728 -5510 -4529 -3565 -1498 -1022 1010 1992 -1750 -1239 1247 -1248 1258 1762 2386 4022"/>
        <stop parkingArea="parkingArea_-6728_1_116" duration="1200"/>
    </vehicle>

    <vehicle id="ptw_6_tr" type="ptw" depart="28.34">
        <route edges="-4403 -3554 -2635 -1883 1873 -1259 -518 -379 -158 -43 42 372 784 1237 2346 2353 3087 3799 4672 5767 6919 -7022 -5781 -4672 -3799 -3087 -2353 -2346 -1237 -784 -372 -42 43 158 379 518 1259 -1873 1883 2635 3554 4403 5272 -5272 -4403"/>
        <stop parkingArea="parkingArea_6919_1_67" duration="1200"/>
    </vehicle>

    <vehicle id="ptw_492_tr" type="ptw" depart="29.71">
        <route edges="-6598 -5398 -4507 -3565 -1498 -1022 1010 1992 -1750 -1239 -784 -372 -42 43 158 379 518 1267 1870 2503 -3518 -1872 -1267 -518 -379 -158 -43 42 372 784 1239 1750 -1992 -1010 1022 1498 3565 4507 5398 6598 -6598"/>
        <stop parkingArea="parkingArea_2503_1_35" duration="1200"/>
    </vehicle>

    <vehicle id="ptw_395_tr" type="ptw" depart="30.5">
        <route edges="-2349 -2346 2347 2384 3191 3903 4675 5791 7047 -7046 -5787 -4675 -3903 -3191 -2384 -2347 2346 2349 -2349"/>
        <stop parkingArea="parkingArea_-7046_1_43" duration="1200"/>
    </vehicle>

    <vehicle id="ptw_513_tr" type="ptw" depart="31.0">
        <route edges="5762 -5763 -4666 -3799 -3087 -2353 -2346 2347 2372 -3784 -3083 3087 3797 4652 5762"/>
        <stop parkingArea="parkingArea_2372_1_59" duration="1200"/>
    </vehicle>

    <vehicle id="ptw_574_tr" type="ptw" depart="31.33">
        <route edges="-4922 -3517 -2505 -1870 -1267 -518 -379 -158 -43 42 372 784 1239 1750 -1992 -1010 1022 1498 -3559 -3555 -2748 -1994 2016 3558 -3080 -2349 -2346 -1237 -784 -372 -42 43 158 379 518 1267 1870 2505 3517 4922 -4922"/>
        <stop parkingArea="parkingArea_-2748_2_112" duration="1200"/>
    </vehicle>

    <vehicle id="ptw_436_tr" type="ptw" depart="31.45">
        <route edges="-4291 -3538 -1872 -1267 -518 -379 -158 -43 42 372 784 1237 2347 2372 -3784 3794 4650 -4665 -3799 -3087 -2353 -2346 -1237 -784 -372 -42 43 158 379 518 1267 1872 3538 4291 -6255 6255 -4291"/>
        <stop parkingArea="parkingArea_4650_1_63" duration="1200"/>
    </vehicle>

    <vehicle id="ptw_91_tr" type="ptw" depart="32.21">
        <route edges="-3559 -3555 3557 6586 -6728 -5510 -4529 -3565 -3559"/>
        <stop parkingArea="parkingArea_-6728_1_116" duration="1200"/>
    </vehicle>

    <vehicle id="ptw_564_tr" type="ptw" depart="32.3">
        <route edges="3919 -3919 -3195 -2384 -2347 -1237 -784 -372 -42 43 158 379 518 1259 -1873 1883 2635 3554 4403 5272 -5272 -4403 -3554 -2635 -1883 1873 -1259 -518 -379 -158 -43 42 372 784 1237 2347 2384 3195 3919"/>
        <stop parkingArea="parkingArea_3554_1_7" duration="1200"/>
    </vehicle>

    <vehicle id="ptw_47_tr" type="ptw" depart="36.63">
        <route edges="-6040 6034 -4254 -3530 -1872 -1267 -518 -379 -158 -43 42 372 784 1237 2347 2384 3191 -3191 -2384 -2347 -1237 -784 -372 -42 43 158 379 518 1267 1872 3530 4254 -6034 6040 -6040"/>
        <stop parkingArea="parkingArea_-3191_1_56" duration="1200"/>
    </vehicle>

    <vehicle id="ptw_62_tr" type="ptw" depart="36.68">
        <route edges="-1994 2016 3558 -3081 -2353 -2346 -1237 -784 -372 372 784 1239 1750 -1992 -1010 1022 1490 -2740 -1994"/>
        <stop parkingArea="parkingArea_-372_1_76" duration="1200"/>
    </vehicle>

    <vehicle id="ptw_354_tr" type="ptw" depart="37.87">
        <route edges="1130 -1133 -754 -402 -382 -268 -52 -24 26 372 788 1258 1762 2388 -2388 -1762 -1258 -788 -372 -42 -15 3 19 51 402 752 1130"/>
        <stop parkingArea="parkingArea_-2388_0_53" duration="1200"/>
    </vehicle>

    <vehicle id="ptw_111_tr" type="ptw" depart="37.97">
        <route edges="-780 -402 -51 -19 -3 15 43 158 379 518 1267 1872 3530 4274 -4275 -3538 -1872 -1267 -518 -379 -158 -43 -15 3 19 51 412 782 -780"/>
        <stop parkingArea="parkingArea_-4275_1_36" duration="1200"/>
    </vehicle>

    <vehicle id="ptw_582_tr" type="ptw" depart="38.86">
        <route edges="-7026 -5781 -4672 -3799 -3087 3081 -3558 -2016 1994 2748 3557 6590 -6727 6727 -6590 -3557 -2748 -1994 2016 3558 -3081 3087 3799 4672 5781 7026 -7026"/>
        <stop parkingArea="parkingArea_-6590_1_113" duration="1200"/>
    </vehicle>

    <vehicle id="ptw_92_tr" type="ptw" depart="39.82">
        <route edges="3794 -3794 -3083 3081 -3558 -2016 1994 2748 3557 -3557 -2748 -1994 2016 3558 -3081 3083 3794"/>
        <stop parkingArea="parkingArea_3557_0_114" duration="1200"/>
    </vehicle>

    <vehicle id="ptw_201_tr" type="ptw" depart="40.41">
        <route edges="2738 -2016 -1487 -1016 -648 -386 -268 -52 -21 23 -27 29 -43 42 372 784 1237 2346 2349 -2739 2738"/>
        <stop parkingArea="parkingArea_23_0_81" duration="1200"/>
    </vehicle>

    <vehicle id="ptw_193_tr" type="ptw" depart="40.84">
        <route edges="2338 -1524 -1133 -754 -402 -382 386 648 1016 1487 2016 3558 -3081 3087 3799 4672 5767 6919 -7022 -5781 -4672 -3799 -3087 -2353 -1740 1750 -1992 -1010 -648 -386 382 402 752 1132 2338"/>
        <stop parkingArea="parkingArea_-7022_1_68" duration="1200"/>
    </vehicle>

    <vehicle id="ptw_137_tr" type="ptw" depart="42.5">
        <route edges="-3905 3905 4682 -4673 -3784 -3083 3081 -3558 -2016 1994 2740 2858 -2858 -1489 1487 2016 3558 -3081 3083 3784 4673 -4682 -3905"/>
        <stop parkingArea="parkingArea_2858_2_110" duration="1200"/>
    </vehicle>

    <vehicle id="ptw_104_tr" type="ptw" depart="42.53">
        <route edges="3905 -3905 -3191 -2384 -2347 -1237 -784 -372 -42 43 158 379 518 1259 -1873 1873 -1259 -518 -379 -158 -43 42 372 784 1237 2347 2384 3191 3905"/>
        <stop parkingArea="parkingArea_-1873_1_12" duration="1200"/>
    </vehicle>

    <vehicle id="ptw_426_tr" type="ptw" depart="43.57">
        <route edges="4794 -4681 -3903 -3191 -2384 -2347 2346 2353 -2353 -2346 2347 2384 3191 3903 4681 -4794 4794"/>
        <stop parkingArea="parkingArea_-2353_2_60" duration="1200"/>
    </vehicle>

    <vehicle id="ptw_248_tr" type="ptw" depart="44.09">
        <route edges="373 -373 -158 -43 42 372 784 1237 2346 2353 3087 -3087 -2353 -2346 -1237 -784 -372 -42 43 158 373"/>
        <stop parkingArea="parkingArea_3087_2_62" duration="1200"/>
    </vehicle>

    <vehicle id="ptw_466_tr" type="ptw" depart="45.45">
        <route edges="4652 -4652 -3797 -3087 -2353 -1740 1750 -1992 -1010 -648 -386 382 402 752 1130 -1133 -754 -402 -382 386 648 1016 1487 2016 3558 -3081 3087 3797 4652"/>
        <stop parkingArea="parkingArea_-754_1_18" duration="1200"/>
    </vehicle>

    <vehicle id="ptw_335_tr" type="ptw" depart="46.43">
        <route edges="-6729 -5515 -4533 -2964 -2231 2227 -2124 -1494 1490 -2740 2748 -2748 2740 -1490 1494 2124 -2227 2231 2964 4533 5515 6729 -6729"/>
        <stop parkingArea="parkingArea_-2748_2_112" duration="1200"/>
    </vehicle>

    <vehicle id="ptw_505_tr" type="ptw" depart="46.78">
        <route edges="-4652 -3797 -3087 3081 -3558 -2016 1994 2740 -1489 1487 2016 3558 -3081 3087 3797 4652 -4652"/>
        <stop parkingArea="parkingArea_-1489_2_111" duration="1200"/>
    </vehicle>

    <vehicle id="ptw_443_tr" type="ptw" depart="46.86">
        <route edges="-6040 6034 -4254 -3530 -1872 -1267 -518 -379 -158 -43 42 -26 24 52 268 400 1514 2231 2964 4533 5515 -5514 -4531 -2964 -2231 -1514 -400 -268 -52 -24 26 -42 43 158 379 518 1267 1872 3530 4254 -6034 6040 -6040"/>
        <stop parkingArea="parkingArea_-5514_2_104" duration="1200"/>
    </vehicle>

    <vehicle id="ptw_526_tr" type="ptw" depart="47.41">
        <route edges="1010 -1010 1022 1494 2124 -2227 2235 -2235 2227 -2124 -1494 -1022 1010"/>
        <stop parkingArea="parkingArea_-2235_2_100" duration="1200"/>
    </vehicle>

    <vehicle id="ptw_41_tr" type="ptw" depart="48.57">
        <route edges="-4672 -3799 -3087 -2353 -1740 1750 -1992 -1010 -648 -386 382 402 752 1132 2340 3671 4539 -4539 -3671 -2340 -1132 -752 -402 -382 386 648 1016 1487 2016 3558 -3081 3087 3799 4672 -4672"/>
        <stop parkingArea="parkingArea_4539_1_8" duration="1200"/>
    </vehicle>

    <vehicle id="ptw_456_tr" type="ptw" depart="50.06">
        <route edges="4525 -4525 -3565 -1498 1494 2124 -2227 2235 2965 -2965 -2235 2227 -2124 -1494 1498 3565 4525"/>
        <stop parkingArea="parkingArea_-2965_1_101" duration="1200"/>
    </vehicle>

    <vehicle id="ptw_484_tr" type="ptw" depart="50.25">
        <route edges="-4275 -3538 -1872 -1267 -518 -379 -158 -43 42 372 784 1239 1750 -1992 -1010 1022 1498 3565 4525 -6728 -5510 -4529 -3565 -1498 -1022 1010 1992 -1750 -1239 -784 -372 -42 43 158 379 518 1267 1872 3530 4274 -4275"/>
        <stop parkingArea="parkingArea_-6728_1_116" duration="1200"/>
    </vehicle>

    <vehicle id="ptw_453_tr" type="ptw" depart="50.35">
        <route edges="1766 2397 -2397 -1766 -1258 -788 -372 -42 43 158 379 518 1267 1870 2505 3517 4922 6049 -6049 -4922 -3517 -2505 -1870 -1267 -518 -379 -158 -43 42 372 788 1258 1766"/>
        <stop parkingArea="parkingArea_6049_1_23" duration="1200"/>
    </vehicle>

    <vehicle id="ptw_56_tr" type="ptw" depart="50.56">
        <route edges="51 -51 -19 -3 15 43 158 379 518 1267 1872 3530 4254 -6034 6036 -6152 -4948 -4260 -3530 -1872 -1267 -518 -379 -158 -43 -15 3 19 51"/>
        <stop parkingArea="parkingArea_-6152_1_29" duration="1200"/>
    </vehicle>

    <vehicle id="ptw_264_tr" type="ptw" depart="52.19">
        <route edges="-5773 -4672 -3799 -3087 -2353 -2346 -1237 -784 -372 -42 43 158 379 520 894 1281 1881 2625 -2625 2609 -3411 -1263 -518 -379 -158 -43 42 372 784 1237 2346 2353 3087 3799 4672 5773 -5773"/>
        <stop parkingArea="parkingArea_2625_1_5" duration="1200"/>
    </vehicle>

    <vehicle id="ptw_294_tr" type="ptw" depart="54.58">
        <route edges="-6731 -5514 -4642 -3072 -2345 2345 3072 4646 -6729 6731 -6731"/>
        <stop parkingArea="parkingArea_2345_2_96" duration="1200"/>
    </vehicle>

    <vehicle id="ptw_320_tr" type="ptw" depart="54.65">
        <route edges="5904 -5799 -4675 -3903 -3191 -2384 -2347 2346 2349 -2354 2370 -2370 2354 -2349 -2346 2347 2384 3191 3903 4675 5799 -5904 5904"/>
        <stop parkingArea="parkingArea_2370_2_92" duration="1200"/>
    </vehicle>

    <vehicle id="ptw_43_tr" type="ptw" depart="54.76">
        <route edges="-1762 -1258 -788 -372 -26 24 52 268 400 1514 2231 2964 4533 5515 -5514 -4531 -2964 -2231 -1514 -400 -268 -52 -24 26 372 788 1258 1762 -1762"/>
        <stop parkingArea="parkingArea_-5514_2_104" duration="1200"/>
    </vehicle>

    <vehicle id="ptw_34_tr" type="ptw" depart="55.37">
        <route edges="-1133 -754 -402 -382 386 648 1022 1498 3565 4525 -6728 -5510 -4529 -3565 -1498 -1022 -648 -386 382 402 752 1130 -1133"/>
        <stop parkingArea="parkingArea_-6728_1_116" duration="1200"/>
    </vehicle>

    <vehicle id="ptw_488_tr" type="ptw" depart="55.56">
        <route edges="-4646 -3072 -2345 -1634 -782 781 -400 -268 -52 -24 26 372 784 1237 2347 2384 3191 3903 4675 5791 7047 -7046 -5787 -4675 -3903 -3191 -2384 -2347 -1237 -784 -372 -26 24 52 268 400 1514 2231 2964 4533 5515 6729 -4646"/>
        <stop parkingArea="parkingArea_7047_2_42" duration="1200"/>
    </vehicle>

    <vehicle id="ptw_530_tr" type="ptw" depart="58.4">
        <route edges="5754 -5754 -4665 -3799 -3087 -2353 -2346 -1237 -784 -372 -42 43 158 379 518 1267 1872 3530 4260 4948 6152 -6036 -4817 -4149 -3518 -1872 -1267 -518 -379 -158 -43 42 372 784 1237 2346 2353 3087 3799 4665 5754"/>
        <stop parkingArea="parkingArea_-6036_1_28" duration="1200"/>
    </vehicle>

    <vehicle id="ptw_542_tr" type="ptw" depart="58.95">
        <route edges="4665 -4665 -3799 -3087 -2353 -2346 -1237 -784 -372 -42 43 158 379 518 1267 1872 3530 4254 -6034 6036 -6152 -4948 -4260 -3530 -1872 -1267 -518 -379 -158 -43 42 372 784 1237 2346 2353 3087 3799 4665"/>
        <stop parkingArea="parkingArea_-6152_1_29" duration="1200"/>
    </vehicle>

    <vehicle id="ptw_128_tr" type="ptw" depart="59.13">
        <route edges="752 -752 -402 -51 -19 -3 15 43 158 379 518 1267 1870 2505 3517 4922 6049 -6049 -4922 -3517 -2505 -1870 -1267 -518 -379 -158 -43 -15 3 19 51 402 752"/>
        <stop parkingArea="parkingArea_6049_1_23" duration="1200"/>
    </vehicle>

    <vehicle id="ptw_387_tr" type="ptw" depart="59.65">
        <route edges="11 -11 5 24 52 268 386 648 1016 -1016 -648 -386 382 -51 -19 -3 11"/>
        <stop parkingArea="parkingArea_-1016_2_89" duration="1200"/>
    </vehicle>

    <vehicle id="ptw_97_tr" type="ptw" depart="60.92">
        <route edges="-3308 -2388 -1762 -1258 -788 -372 -26 24 52 268 386 648 1010 1992 -1750 -1239 1247 -1248 1258 1762 2386 4022 -3308"/>
        <stop parkingArea="parkingArea_648_1_88" duration="1200"/>
    </vehicle>

    <vehicle id="ptw_14_tr" type="ptw" depart="66.06">
        <route edges="-4948 -4260 -3530 -1872 -1267 -518 -379 -158 -43 42 -26 24 52 268 386 648 1010 1992 -1750 -1239 -784 -372 -42 43 158 379 518 1267 1872 3530 4260 4948 -4948"/>
        <stop parkingArea="parkingArea_648_1_88" duration="1200"/>
    </vehicle>

    <vehicle id="ptw_246_tr" type="ptw" depart="66.26">
        <route edges="4291 -6255 6255 -4291 -3538 -1872 -1267 -518 -379 -158 -43 42 372 784 1239 1750 -1992 -1010 1022 1490 -1489 -1016 1010 1992 -1750 -1239 -784 -372 -42 43 158 379 518 1267 1872 3538 4291"/>
        <stop parkingArea="parkingArea_-1489_2_111" duration="1200"/>
    </vehicle>

    <vehicle id="ptw_419_tr" type="ptw" depart="66.44">
        <route edges="1498 -1498 -1022 1010 1992 -1750 -1239 1237 2347 2384 3191 3903 4675 5787 -5787 -4675 -3903 -3191 -2384 -2347 2346 -1740 1750 -1992 -1010 1022 1498"/>
        <stop parkingArea="parkingArea_-5787_1_44" duration="1200"/>
    </vehicle>

    <vehicle id="ptw_168_tr" type="ptw" depart="67.13">
        <route edges="5762 -5763 -4666 -3799 -3087 3081 -3558 -2738 2739 -2349 2353 3087 3797 4652 5762"/>
        <stop parkingArea="parkingArea_-2738_1_61" duration="1200"/>
    </vehicle>

    <vehicle id="ptw_7_tr" type="ptw" depart="67.43">
        <route edges="4650 -4650 -3794 3784 -2372 -1754 -1248 1248 1754 2372 -3784 3794 4650"/>
        <stop parkingArea="parkingArea_-1248_2_57" duration="1200"/>
    </vehicle>

    <vehicle id="ptw_355_tr" type="ptw" depart="68.05">
        <route edges="4672 -4672 -3799 -3087 -2353 -2346 -1237 -784 -372 -42 43 158 379 518 1267 1870 2503 -3518 -1872 -1267 -518 -379 -158 -43 42 372 784 1237 2346 2353 3087 3799 4672"/>
        <stop parkingArea="parkingArea_2503_1_35" duration="1200"/>
    </vehicle>

    <vehicle id="ptw_29_tr" type="ptw" depart="68.52">
        <route edges="-2016 -1487 -1016 -648 -386 -268 -52 -24 -5 3 19 51 -382 386 648 1016 1487 2016 -2016"/>
        <stop parkingArea="parkingArea_-5_0_79" duration="1200"/>
    </vehicle>

    <vehicle id="ptw_59_tr" type="ptw" depart="71.36">
        <route edges="-5767 -4672 -3799 -3087 3081 -3558 -2016 -1487 -1016 1010 1992 -1750 1740 2353 3087 3799 4672 5767 -5767"/>
        <stop parkingArea="parkingArea_-1016_2_89" duration="1200"/>
    </vehicle>

    <vehicle id="ptw_73_tr" type="ptw" depart="71.92">
        <route edges="3199 -4673 -3784 -3083 3081 -3558 -2016 -1487 -1016 -648 -386 382 402 752 1132 2340 3681 5650 -5650 -3681 -2340 -1132 -752 -402 -51 -19 -3 15 42 372 784 1237 2347 2384 3199"/>
        <stop parkingArea="parkingArea_5650_1_10" duration="1200"/>
    </vehicle>

    <vehicle id="ptw_25_tr" type="ptw" depart="74.46">
        <route edges="906 -1873 1883 2635 -2635 -1883 1873 -906 906"/>
        <stop parkingArea="parkingArea_-2635_1_6" duration="1200"/>
    </vehicle>

    <vehicle id="ptw_130_tr" type="ptw" depart="74.76">
        <route edges="-1130 -752 -402 -51 -19 23 -27 -11 3 19 51 402 752 1130 -1130"/>
        <stop parkingArea="parkingArea_23_0_81" duration="1200"/>
    </vehicle>

    <vehicle id="ptw_314_tr" type="ptw" depart="74.9">
        <route edges="-3539 -3411 -1263 -518 -379 -158 -43 42 372 784 1237 2346 2353 -2353 -1740 -1239 -784 -372 -42 43 158 379 520 906 -3539"/>
        <stop parkingArea="parkingArea_-2353_2_60" duration="1200"/>
    </vehicle>

    <vehicle id="ptw_77_tr" type="ptw" depart="75.29">
        <route edges="-19 19 51 -382 386 648 1016 1487 1994 2748 -2748 -1994 -1487 -1016 -648 -386 382 -51 -19"/>
        <stop parkingArea="parkingArea_-2748_2_112" duration="1200"/>
    </vehicle>

    <vehicle id="ptw_321_tr" type="ptw" depart="76.49">
        <route edges="-3919 -3195 -2384 -2347 -1237 -784 -372 -42 -15 3 19 51 402 752 1132 2340 3681 5626 -5626 -3681 -2340 -1132 -752 -402 -51 -19 -3 15 42 372 784 1237 2347 2384 3195 3919 -3919"/>
        <stop parkingArea="parkingArea_5626_1_11" duration="1200"/>
    </vehicle>

    <vehicle id="ptw_319_tr" type="ptw" depart="76.67">
        <route edges="-5763 -4666 -3799 -3087 -2353 -2346 -1237 -784 -372 -42 43 158 379 518 1267 1872 3518 -3518 -1872 -1267 -518 -379 -158 -43 42 372 784 1237 2346 2353 3087 3799 4666 5763 -5763"/>
        <stop parkingArea="parkingArea_3518_1_33" duration="1200"/>
    </vehicle>

    <vehicle id="ptw_70_tr" type="ptw" depart="78.19">
        <route edges="6034 -4254 -3530 -1872 -1267 -518 -379 -158 -43 -15 3 19 51 402 752 1132 2340 3681 5626 -5626 -3681 -2340 -1132 -752 -402 -51 -19 -3 15 43 158 379 518 1267 1872 3530 4254 -6034 6034"/>
        <stop parkingArea="parkingArea_5626_1_11" duration="1200"/>
    </vehicle>

    <vehicle id="ptw_308_tr" type="ptw" depart="79.67">
        <route edges="-2635 -1883 1873 -1259 -518 -379 -158 -43 42 372 784 1237 2346 2349 -2739 2738 -2016 1994 2748 3557 6586 -4525 -3565 -1498 -1022 1010 1992 -1750 -1239 -784 -372 -42 43 158 379 518 1259 -1873 1883 2635 -2635"/>
        <stop parkingArea="parkingArea_3557_0_114" duration="1200"/>
    </vehicle>

    <vehicle id="ptw_260_tr" type="ptw" depart="80.9">
        <route edges="3799 -3799 -3087 -2353 -1740 -1239 -784 -372 -42 43 -43 42 372 784 1237 2346 2353 3087 3799"/>
        <stop parkingArea="parkingArea_-43_1_75" duration="1200"/>
    </vehicle>

    <vehicle id="ptw_479_tr" type="ptw" depart="81.28">
        <route edges="1247 1754 2384 3191 3903 4675 5791 7047 -7046 -5787 -4675 -3903 -3191 -2384 -2347 -1237 1247"/>
        <stop parkingArea="parkingArea_7047_2_42" duration="1200"/>
    </vehicle>

    <vehicle id="ptw_344_tr" type="ptw" depart="81.61">
        <route edges="372 784 1239 1750 -1992 -1010 1022 1498 -1498 -1022 1010 1992 -1750 -1239 -784 -372 372"/>
        <stop parkingArea="parkingArea_1498_1_109" duration="1200"/>
    </vehicle>

    <vehicle id="ptw_35_tr" type="ptw" depart="81.74">
        <route edges="1994 -1994 -1487 -1016 -648 -386 382 402 752 1132 2340 3671 4539 -4539 -3671 -2340 -1132 -752 -402 -382 386 648 1016 1487 1994"/>
        <stop parkingArea="parkingArea_4539_1_8" duration="1200"/>
    </vehicle>

    <vehicle id="ptw_191_tr" type="ptw" depart="82.32">
        <route edges="-6598 -5398 -4507 -3565 -1498 -1022 1010 1992 -1750 -1239 1239 1750 -1992 -1010 1022 1498 3565 4507 5398 6598 -6598"/>
        <stop parkingArea="parkingArea_-1239_1_90" duration="1200"/>
    </vehicle>

    <vehicle id="ptw_162_tr" type="ptw" depart="84.58">
        <route edges="-1267 -518 -379 -158 -43 42 372 784 1237 2347 2372 -2372 -1754 -1248 -788 -372 -42 43 158 379 518 1267 -1267"/>
        <stop parkingArea="parkingArea_2372_1_59" duration="1200"/>
    </vehicle>

    <vehicle id="ptw_262_tr" type="ptw" depart="84.6">
        <route edges="782 -782 781 1514 2227 -2124 -1494 1494 2124 -2227 -1514 -781 782"/>
        <stop parkingArea="parkingArea_-2124_1_108" duration="1200"/>
    </vehicle>

    <vehicle id="ptw_506_tr" type="ptw" depart="85.33">
        <route edges="2505 -2505 -1870 -1267 -518 -379 -158 -43 -15 3 19 51 402 752 1132 2340 3681 5650 -5650 -3681 -2340 -1132 -752 -402 -51 -19 -3 15 43 158 379 518 1267 1870 2505"/>
        <stop parkingArea="parkingArea_5650_1_10" duration="1200"/>
    </vehicle>

    <vehicle id="ptw_441_tr" type="ptw" depart="85.55">
        <route edges="2965 -2965 -2235 -1514 -400 -268 -52 -24 26 -42 43 158 379 520 894 1281 1881 2625 3543 -3543 -2625 2609 -3411 -1263 -518 -379 -158 -43 42 -26 24 52 268 400 1514 2235 2965"/>
        <stop parkingArea="parkingArea_3543_1_4" duration="1200"/>
    </vehicle>

    <vehicle id="ptw_285_tr" type="ptw" depart="85.79">
        <route edges="-4940 -3517 -2505 -1870 -1267 -518 -379 -158 -43 -15 3 19 51 412 782 1634 2345 3072 4646 -4646 -3072 -2345 -1634 -780 -402 -51 -19 -3 15 43 158 379 518 1267 1870 2505 3517 4940 -4940"/>
        <stop parkingArea="parkingArea_4646_2_98" duration="1200"/>
    </vehicle>

    <vehicle id="ptw_536_tr" type="ptw" depart="86.02">
        <route edges="-894 -520 -379 -158 -43 42 372 784 1239 1740 2353 3087 3799 4672 5767 6919 -7022 -5781 -4672 -3799 -3087 -2353 -2346 -1237 -784 -372 -42 43 158 379 520 894 1281 -1281 -894"/>
        <stop parkingArea="parkingArea_6919_1_67" duration="1200"/>
    </vehicle>

    <vehicle id="ptw_39_tr" type="ptw" depart="86.04">
        <route edges="-3411 -1263 1259 -1259 1259 -3539 -3411"/>
        <stop parkingArea="parkingArea_-1259_1_15" duration="1200"/>
    </vehicle>

    <vehicle id="ptw_477_tr" type="ptw" depart="86.28">
        <route edges="-3517 -2505 -1870 -1267 -518 -379 -158 -43 42 372 788 1258 1762 2386 4022 4045 4808 -4808 -4045 -3308 -2388 -1762 -1258 -788 -372 -42 43 158 379 518 1267 1870 2505 3517 -3517"/>
        <stop parkingArea="parkingArea_-4808_1_47" duration="1200"/>
    </vehicle>

    <vehicle id="ptw_236_tr" type="ptw" depart="88.17">
        <route edges="3681 -3681 -2340 -1132 -752 -402 -51 -19 -3 15 43 158 379 518 1259 -906 -520 -379 -158 -43 -15 3 19 51 402 752 1132 2340 3681"/>
        <stop parkingArea="parkingArea_-906_1_14" duration="1200"/>
    </vehicle>

    <vehicle id="ptw_160_tr" type="ptw" depart="89.51">
        <route edges="-3195 3195 -3302 -2388 2388 3302 -3195"/>
        <stop parkingArea="parkingArea_-2388_0_53" duration="1200"/>
    </vehicle>

    <vehicle id="ptw_220_tr" type="ptw" depart="89.86">
        <route edges="-3087 -2353 -1740 1750 -1992 -1010 -648 -386 382 -51 -19 -3 15 42 372 784 1237 2346 2353 3087 -3087"/>
        <stop parkingArea="parkingArea_-19_1_82" duration="1200"/>
    </vehicle>

    <vehicle id="ptw_501_tr" type="ptw" depart="91.0">
        <route edges="-3087 -2353 -1740 -1239 1239 1740 2353 3087 -3087"/>
        <stop parkingArea="parkingArea_-1239_1_90" duration="1200"/>
    </vehicle>

    <vehicle id="ptw_508_tr" type="ptw" depart="91.01">
        <route edges="-3191 -2384 2372 -2372 2384 3191 -3191"/>
        <stop parkingArea="parkingArea_2372_1_59" duration="1200"/>
    </vehicle>

    <vehicle id="ptw_63_tr" type="ptw" depart="91.14">
        <route edges="2964 -2964 -2231 -1514 -400 -268 -52 -24 26 372 788 1258 1762 -1762 -1258 -788 -372 -26 24 52 268 400 1514 2231 2964"/>
        <stop parkingArea="parkingArea_-1762_1_52" duration="1200"/>
    </vehicle>

    <vehicle id="ptw_204_tr" type="ptw" depart="91.19">
        <route edges="-2396 -1762 -1258 1248 -1247 1239 1750 -1992 -1010 -648 -386 -268 -52 -24 26 372 788 1258 1766 2397 -2396"/>
        <stop parkingArea="parkingArea_-386_1_87" duration="1200"/>
    </vehicle>

    <vehicle id="ptw_333_tr" type="ptw" depart="91.23">
        <route edges="-1883 1873 -1259 -518 -379 -158 -43 42 372 784 1239 -1239 -784 -372 -42 43 158 379 518 1259 -1873 1883 2635 -2635 -1883"/>
        <stop parkingArea="parkingArea_-1239_1_90" duration="1200"/>
    </vehicle>

    <vehicle id="ptw_532_tr" type="ptw" depart="91.27">
        <route edges="-4529 -3565 -1498 -1022 1010 1992 -1750 -1239 -784 -372 -42 43 -43 42 372 784 1239 1750 -1992 -1010 1022 1498 3565 4529 -4529"/>
        <stop parkingArea="parkingArea_-43_1_75" duration="1200"/>
    </vehicle>

    <vehicle id="ptw_599_tr" type="ptw" depart="91.58">
        <route edges="3081 -3080 -2349 -2346 2347 2372 -3784 -3083 3081"/>
        <stop parkingArea="parkingArea_2372_1_59" duration="1200"/>
    </vehicle>

    <vehicle id="ptw_61_tr" type="ptw" depart="92.82">
        <route edges="-4539 -3671 -2340 -1132 -752 -402 -51 -19 -3 15 43 158 379 518 1259 -1259 -518 -379 -158 -43 -15 3 19 51 402 752 1132 2340 3671 4539 -4539"/>
        <stop parkingArea="parkingArea_-1259_1_15" duration="1200"/>
    </vehicle>

    <vehicle id="ptw_188_tr" type="ptw" depart="93.14">
        <route edges="-4687 -3919 -3195 -2384 -2347 -1237 -784 -372 -42 43 158 379 518 1267 1872 3518 -3518 -1872 -1267 -518 -379 -158 -43 42 372 784 1237 2347 2384 3195 3919 4687 -4687"/>
        <stop parkingArea="parkingArea_3518_1_33" duration="1200"/>