<?xml version="1.0" encoding="UTF-8"?>

<!--
    Monaco SUMO Traffic (MoST) Scenario
    Copyright (C) 2018
    Lara CODECA

    This program is free software: you can redistribute it and/or modify
    it under the terms of the GNU General Public License as published by
    the Free Software Foundation, either version 3 of the License, or
    (at your option) any later version.

    This program is distributed in the hope that it will be useful,
    but WITHOUT ANY WARRANTY; without even the implied warranty of
    MERCHANTABILITY or FITNESS FOR A PARTICULAR PURPOSE.  See the
    GNU General Public License for more details.

    You should have received a copy of the GNU General Public License
    along with this program.  If not, see <http://www.gnu.org/licenses/>.
-->

<routes xmlns:xsi="http://www.w3.org/2001/XMLSchema-instance" xsi:noNamespaceSchemaLocation="http://sumo.dlr.de/xsd/routes_file.xsd">
    <vehicle id="pedestrian_1_1096_tr" type="default" depart="triggered" departLane="best" arrivalPos="27.5">
        <route edges="D0C0 C0B0 B0B1 B1C1"/>
        <stop parkingArea="parkingArea_B1C1_1_2" duration="1800"/>
    </vehicle>
    <person id="pedestrian_1_1096" depart="0">
        <ride from="D0C0" to="B1C1" lines="pedestrian_1_1096_tr"/>
        <walk edges="B1C1"/>
    </person>
    <vehicle id="pedestrian_1_2360_tr" type="default" depart="triggered" departLane="best" arrivalPos="27.5">
        <route edges="C0D0 D0D1"/>
        <stop parkingArea="parkingArea_D0D1_1_23" duration="1800"/>
    </vehicle>
    <person id="pedestrian_1_2360" depart="6">
        <ride from="C0D0" to="D0D1" lines="pedestrian_1_2360_tr"/>
        <walk edges="D0D1 D0right0"/>
    </person>
    <vehicle id="pedestrian_1_2312_tr" type="default" depart="triggered" departLane="best" arrivalPos="27.5">
        <route edges="left1A1 A1B1 B1C1 C1C0"/>
        <stop parkingArea="parkingArea_C1C0_1_20" duration="1800"/>
    </vehicle>
    <person id="pedestrian_1_2312" depart="7">
        <ride from="left1A1" to="C1C0" lines="pedestrian_1_2312_tr"/>
        <walk edges="C1C0"/>
    </person>
    <vehicle id="pedestrian_1_3518_tr" type="default" depart="triggered" departLane="best" arrivalPos="27.5">
        <route edges="top3D1 D1D0 D0C0"/>
        <stop parkingArea="parkingArea_D0C0_1_12" duration="1800"/>
    </vehicle>
    <person id="pedestrian_1_3518" depart="8">
        <ride from="top3D1" to="D0C0" lines="pedestrian_1_3518_tr"/>
        <walk edges="D0C0"/>
    </person>
    <vehicle id="pedestrian_1_1417_tr" type="default" depart="triggered" departLane="best" arrivalPos="27.5">
        <route edges="A0A1 A1B1 B1B0 B0A0"/>
        <stop parkingArea="parkingArea_B0A0_1_8" duration="1800"/>
    </vehicle>
    <person id="pedestrian_1_1417" depart="9">
        <ride from="A0A1" to="B0A0" lines="pedestrian_1_1417_tr"/>
        <walk edges="B0A0 B0bottom1"/>
    </person>
    <vehicle id="pedestrian_1_2350_tr" type="default" depart="triggered" departLane="best" arrivalPos="27.5">
        <route edges="A1A0 A0left0 left0A0 A0A1"/>
        <stop parkingArea="parkingArea_A0A1_1_17" duration="1800"/>
    </vehicle>
    <person id="pedestrian_1_2350" depart="14">
        <ride from="A1A0" to="A0A1" lines="pedestrian_1_2350_tr"/>
        <walk edges="A0A1"/>
    </person>
    <vehicle id="pedestrian_1_717_tr" type="default" depart="triggered" departLane="best" arrivalPos="27.5">
        <route edges="bottom1B0 B0C0 C0D0 D0D1 D1C1"/>
        <stop parkingArea="parkingArea_D1C1_1_5" duration="1800"/>
    </vehicle>
    <person id="pedestrian_1_717" depart="16">
        <ride from="bottom1B0" to="D1C1" lines="pedestrian_1_717_tr"/>
        <walk edges="D1C1 D1top3"/>
    </person>
    <vehicle id="pedestrian_1_1436_tr" type="default" depart="triggered" departLane="best" arrivalPos="27.5">
        <route edges="top2C1 C1B1 B1A1 A1top0 top0A1 A1B1"/>
        <stop parkingArea="parkingArea_A1B1_1_1" duration="1800"/>
    </vehicle>
    <person id="pedestrian_1_1436" depart="20">
        <ride from="top2C1" to="A1B1" lines="pedestrian_1_1436_tr"/>
        <walk edges="A1B1"/>
    </person>
    <vehicle id="pedestrian_1_1493_tr" type="default" depart="triggered" departLane="best" arrivalPos="27.5">
        <route edges="A0A1 A1B1 B1B0 B0A0"/>
        <stop parkingArea="parkingArea_B0A0_1_8" duration="1800"/>
    </vehicle>
    <person id="pedestrian_1_1493" depart="23">
        <ride from="A0A1" to="B0A0" lines="pedestrian_1_1493_tr"/>
        <walk edges="B0A0 B0bottom1"/>
    </person>
    <vehicle id="pedestrian_1_2364_tr" type="default" depart="triggered" departLane="best" arrivalPos="27.5">
        <route edges="A1A0 A0B0 B0C0 C0D0 D0D1 D1C1"/>
        <stop parkingArea="parkingArea_D1C1_1_5" duration="1800"/>
    </vehicle>
    <person id="pedestrian_1_2364" depart="29">
        <ride from="A1A0" to="D1C1" lines="pedestrian_1_2364_tr"/>
        <walk edges="D1C1 D1top3"/>
    </person>
    <vehicle id="pedestrian_1_2306_tr" type="default" depart="triggered" departLane="best" arrivalPos="27.5">
        <route edges="bottom2C0 C0D0 D0bottom3 bottom3D0 D0C0"/>
        <stop parkingArea="parkingArea_D0C0_1_12" duration="1800"/>
    </vehicle>
    <person id="pedestrian_1_2306" depart="30">
        <ride from="bottom2C0" to="D0C0" lines="pedestrian_1_2306_tr"/>
        <walk edges="D0C0"/>
    </person>
    <vehicle id="pedestrian_1_1590_tr" type="default" depart="triggered" departLane="best" arrivalPos="27.5">
        <route edges="B1A1 A1A0 A0B0 B0C0 C0D0 D0D1"/>
        <stop parkingArea="parkingArea_D0D1_1_23" duration="1800"/>
    </vehicle>
    <person id="pedestrian_1_1590" depart="31">
        <ride from="B1A1" to="D0D1" lines="pedestrian_1_1590_tr"/>
        <walk edges="D0D1 D0right0"/>
    </person>
    <vehicle id="pedestrian_1_660_tr" type="default" depart="triggered" departLane="best" arrivalPos="27.5">
        <route edges="A0B0 B0C0 C0D0 D0bottom3 bottom3D0 D0C0"/>
        <stop parkingArea="parkingArea_D0C0_1_12" duration="1800"/>
    </vehicle>
    <person id="pedestrian_1_660" depart="32">
        <ride from="A0B0" to="D0C0" lines="pedestrian_1_660_tr"/>
        <walk edges="D0C0"/>
    </person>
    <vehicle id="pedestrian_1_2921_tr" type="default" depart="triggered" departLane="best" arrivalPos="27.5">
        <route edges="left0A0 A0A1 A1B1 B1C1 C1D1"/>
        <stop parkingArea="parkingArea_C1D1_1_3" duration="1800"/>
    </vehicle>
    <person id="pedestrian_1_2921" depart="35">
        <ride from="left0A0" to="C1D1" lines="pedestrian_1_2921_tr"/>
        <walk edges="C1D1"/>
    </person>
    <vehicle id="pedestrian_1_3437_tr" type="default" depart="triggered" departLane="best" arrivalPos="27.5">
        <route edges="A0B0 B0C0 C0D0 D0D1 D1C1"/>
        <stop parkingArea="parkingArea_D1C1_1_5" duration="1800"/>
    </vehicle>
    <person id="pedestrian_1_3437" depart="37">
        <ride from="A0B0" to="D1C1" lines="pedestrian_1_3437_tr"/>
        <walk edges="D1C1"/>
    </person>
    <vehicle id="pedestrian_1_697_tr" type="default" depart="triggered" departLane="best" arrivalPos="27.5">
        <route edges="B1A1 A1top0 top0A1 A1B1 B1C1 C1C0"/>
        <stop parkingArea="parkingArea_C1C0_1_20" duration="1800"/>
    </vehicle>
    <person id="pedestrian_1_697" depart="40">
        <ride from="B1A1" to="C1C0" lines="pedestrian_1_697_tr"/>
        <walk edges="C1C0"/>
    </person>
    <vehicle id="pedestrian_1_736_tr" type="default" depart="triggered" departLane="best" arrivalPos="27.5">
        <route edges="top3D1 D1C1"/>
        <stop parkingArea="parkingArea_D1C1_1_5" duration="1800"/>
    </vehicle>
    <person id="pedestrian_1_736" depart="41">
        <ride from="top3D1" to="D1C1" lines="pedestrian_1_736_tr"/>
        <walk edges="D1C1"/>
    </person>
    <vehicle id="pedestrian_1_1426_tr" type="default" depart="triggered" departLane="best" arrivalPos="27.5">
        <route edges="left0A0 A0B0 B0C0 C0C1"/>
        <stop parkingArea="parkingArea_C0C1_1_21" duration="1800"/>
    </vehicle>
    <person id="pedestrian_1_1426" depart="41">
        <ride from="left0A0" to="C0C1" lines="pedestrian_1_1426_tr"/>
        <walk edges="C0C1"/>
    </person>
    <vehicle id="pedestrian_1_2415_tr" type="default" depart="triggered" departLane="best" arrivalPos="27.5">
        <route edges="right0D0 D0D1 D1C1 C1B1 B1A1 A1A0"/>
        <stop parkingArea="parkingArea_A1A0_1_16" duration="1800"/>
    </vehicle>
    <person id="pedestrian_1_2415" depart="49">
        <ride from="right0D0" to="A1A0" lines="pedestrian_1_2415_tr"/>
        <walk edges="A1A0"/>
    </person>
    <vehicle id="pedestrian_1_852_tr" type="default" depart="triggered" departLane="best" arrivalPos="27.5">
        <route edges="bottom2C0 C0C1 C1D1 D1D0"/>
        <stop parkingArea="parkingArea_D1D0_1_22" duration="1800"/>
    </vehicle>
    <person id="pedestrian_1_852" depart="55">
        <ride from="bottom2C0" to="D1D0" lines="pedestrian_1_852_tr"/>
        <walk edges="D1D0"/>
    </person>
    <vehicle id="pedestrian_1_1516_tr" type="default" depart="triggered" departLane="best" arrivalPos="27.5">
        <route edges="top1B1 B1C1"/>
        <stop parkingArea="parkingArea_B1C1_1_2" duration="1800"/>
    </vehicle>
    <person id="pedestrian_1_1516" depart="58">
        <ride from="top1B1" to="B1C1" lines="pedestrian_1_1516_tr"/>
        <walk edges="B1C1 B1top1"/>
    </person>
    <vehicle id="pedestrian_1_680_tr" type="default" depart="triggered" departLane="best" arrivalPos="27.5">
        <route edges="C0C1 C1B1 B1A1"/>
        <stop parkingArea="parkingArea_B1A1_1_15" duration="1800"/>
    </vehicle>
    <person id="pedestrian_1_680" depart="62">
        <ride from="C0C1" to="B1A1" lines="pedestrian_1_680_tr"/>
        <walk edges="B1A1"/>
    </person>
    <vehicle id="pedestrian_1_470_tr" type="default" depart="triggered" departLane="best" arrivalPos="27.5">
        <route edges="C0C1 C1D1 D1D0 D0C0"/>
        <stop parkingArea="parkingArea_D0C0_1_12" duration="1800"/>
    </vehicle>
    <person id="pedestrian_1_470" depart="65">
        <ride from="C0C1" to="D0C0" lines="pedestrian_1_470_tr"/>
        <walk edges="D0C0 D0bottom3"/>
    </person>
    <vehicle id="pedestrian_1_2077_tr" type="default" depart="triggered" departLane="best" arrivalPos="27.5">
        <route edges="top2C1 C1D1 D1D0"/>
        <stop parkingArea="parkingArea_D1D0_1_22" duration="1800"/>
    </vehicle>
    <person id="pedestrian_1_2077" depart="66">
        <ride from="top2C1" to="D1D0" lines="pedestrian_1_2077_tr"/>
        <walk edges="D1D0"/>
    </person>
    <vehicle id="pedestrian_1_3527_tr" type="default" depart="triggered" departLane="best" arrivalPos="27.5">
        <route edges="bottom3D0 D0C0 C0B0 B0A0"/>
        <stop parkingArea="parkingArea_B0A0_1_8" duration="1800"/>
    </vehicle>
    <person id="pedestrian_1_3527" depart="69">
        <ride from="bottom3D0" to="B0A0" lines="pedestrian_1_3527_tr"/>
        <walk edges="B0A0"/>
    </person>
    <vehicle id="pedestrian_1_1966_tr" type="default" depart="triggered" departLane="best" arrivalPos="27.5">
        <route edges="top0A1 A1B1 B1C1 C1top2 top2C1 C1B1"/>
        <stop parkingArea="parkingArea_C1B1_1_6" duration="1800"/>
    </vehicle>
    <person id="pedestrian_1_1966" depart="71">
        <ride from="top0A1" to="C1B1" lines="pedestrian_1_1966_tr"/>
        <walk edges="C1B1"/>
    </person>
    <vehicle id="pedestrian_1_3338_tr" type="default" depart="triggered" departLane="best" arrivalPos="27.5">
        <route edges="bottom0A0 A0B0 B0B1 B1C1 C1D1 D1D0"/>
        <stop parkingArea="parkingArea_D1D0_1_22" duration="1800"/>
    </vehicle>
    <person id="pedestrian_1_3338" depart="71">
        <ride from="bottom0A0" to="D1D0" lines="pedestrian_1_3338_tr"/>
        <walk edges="D1D0"/>
    </person>
    <vehicle id="pedestrian_1_2336_tr" type="default" depart="triggered" departLane="best" arrivalPos="27.5">
        <route edges="B0B1 B1top1 top1B1 B1B0"/>
        <stop parkingArea="parkingArea_B1B0_1_18" duration="1800"/>
    </vehicle>
    <person id="pedestrian_1_2336" depart="72">
        <ride from="B0B1" to="B1B0" lines="pedestrian_1_2336_tr"/>
        <walk edges="B1B0"/>
    </person>
    <vehicle id="pedestrian_1_2188_tr" type="default" depart="triggered" departLane="best" arrivalPos="27.5">
        <route edges="B1A1 A1top0 top0A1 A1B1 B1C1 C1D1"/>
        <stop parkingArea="parkingArea_C1D1_1_3" duration="1800"/>
    </vehicle>
    <person id="pedestrian_1_2188" depart="73">
        <ride from="B1A1" to="C1D1" lines="pedestrian_1_2188_tr"/>
        <walk edges="C1D1 C1top2"/>
    </person>
    <vehicle id="pedestrian_1_3171_tr" type="default" depart="triggered" departLane="best" arrivalPos="27.5">
        <route edges="A1B1 B1B0 B0C0 C0D0"/>
        <stop parkingArea="parkingArea_C0D0_1_13" duration="1800"/>
    </vehicle>
    <person id="pedestrian_1_3171" depart="76">
        <ride from="A1B1" to="C0D0" lines="pedestrian_1_3171_tr"/>
        <walk edges="C0D0"/>
    </person>
    <vehicle id="pedestrian_1_779_tr" type="default" depart="triggered" departLane="best" arrivalPos="27.5">
        <route edges="top2C1 C1B1 B1top1 top1B1 B1C1"/>
        <stop parkingArea="parkingArea_B1C1_1_2" duration="1800"/>
    </vehicle>
    <person id="pedestrian_1_779" depart="78">
        <ride from="top2C1" to="B1C1" lines="pedestrian_1_779_tr"/>
        <walk edges="B1C1"/>
    </person>
    <vehicle id="pedestrian_1_2472_tr" type="default" depart="triggered" departLane="best" arrivalPos="27.5">
        <route edges="B0B1 B1C1 C1C0 C0D0 D0D1"/>
        <stop parkingArea="parkingArea_D0D1_1_23" duration="1800"/>
    </vehicle>
    <person id="pedestrian_1_2472" depart="83">
        <ride from="B0B1" to="D0D1" lines="pedestrian_1_2472_tr"/>
        <walk edges="D0D1 D0right0"/>
    </person>
    <vehicle id="pedestrian_1_2280_tr" type="default" depart="triggered" departLane="best" arrivalPos="27.5">
        <route edges="top0A1 A1B1 B1B0 B0C0"/>
        <stop parkingArea="parkingArea_B0C0_1_11" duration="1800"/>
    </vehicle>
    <person id="pedestrian_1_2280" depart="86">
        <ride from="top0A1" to="B0C0" lines="pedestrian_1_2280_tr"/>
        <walk edges="B0C0"/>
    </person>
    <vehicle id="pedestrian_1_2249_tr" type="default" depart="triggered" departLane="best" arrivalPos="27.5">
        <route edges="top0A1 A1B1 B1C1"/>
        <stop parkingArea="parkingArea_B1C1_1_2" duration="1800"/>
    </vehicle>
    <person id="pedestrian_1_2249" depart="90">
        <ride from="top0A1" to="B1C1" lines="pedestrian_1_2249_tr"/>
        <walk edges="B1C1 B1top1"/>
    </person>
    <vehicle id="pedestrian_1_1059_tr" type="default" depart="triggered" departLane="best" arrivalPos="27.5">
        <route edges="A1B1 B1top1 top1B1 B1A1 A1A0"/>
        <stop parkingArea="parkingArea_A1A0_1_16" duration="1800"/>
    </vehicle>
    <person id="pedestrian_1_1059" depart="92">
        <ride from="A1B1" to="A1A0" lines="pedestrian_1_1059_tr"/>
        <walk edges="A1A0"/>
    </person>
    <vehicle id="pedestrian_1_3103_tr" type="default" depart="triggered" departLane="best" arrivalPos="27.5">
        <route edges="right0D0 D0D1 D1C1"/>
        <stop parkingArea="parkingArea_D1C1_1_5" duration="1800"/>
    </vehicle>
    <person id="pedestrian_1_3103" depart="93">
        <ride from="right0D0" to="D1C1" lines="pedestrian_1_3103_tr"/>
        <walk edges="D1C1 D1top3"/>
    </person>
    <vehicle id="pedestrian_1_22_tr" type="default" depart="triggered" departLane="best" arrivalPos="27.5">
        <route edges="A0A1 A1B1 B1C1"/>
        <stop parkingArea="parkingArea_B1C1_1_2" duration="1800"/>
    </vehicle>
    <person id="pedestrian_1_22" depart="95">
        <ride from="A0A1" to="B1C1" lines="pedestrian_1_22_tr"/>
        <walk edges="B1C1 B1top1"/>
    </person>
    <vehicle id="pedestrian_1_3148_tr" type="default" depart="triggered" departLane="best" arrivalPos="27.5">
        <route edges="left1A1 A1A0 A0B0 B0B1"/>
        <stop parkingArea="parkingArea_B0B1_1_19" duration="1800"/>
    </vehicle>
    <person id="pedestrian_1_3148" depart="98">
        <ride from="left1A1" to="B0B1" lines="pedestrian_1_3148_tr"/>
        <walk edges="B0B1"/>
    </person>
    <vehicle id="pedestrian_1_165_tr" type="default" depart="triggered" departLane="best" arrivalPos="27.5">
        <route edges="top0A1 A1B1 B1C1 C1C0"/>
        <stop parkingArea="parkingArea_C1C0_1_20" duration="1800"/>
    </vehicle>
    <person id="pedestrian_1_165" depart="103">
        <ride from="top0A1" to="C1C0" lines="pedestrian_1_165_tr"/>
        <walk edges="C1C0"/>
    </person>
    <vehicle id="pedestrian_1_192_tr" type="default" depart="triggered" departLane="best" arrivalPos="27.5">
        <route edges="D1C1 C1C0 C0B0 B0A0 A0A1"/>
        <stop parkingArea="parkingArea_A0A1_1_17" duration="1800"/>
    </vehicle>
    <person id="pedestrian_1_192" depart="103">
        <ride from="D1C1" to="A0A1" lines="pedestrian_1_192_tr"/>
        <walk edges="A0A1"/>
    </person>
    <vehicle id="pedestrian_1_3568_tr" type="default" depart="triggered" departLane="best" arrivalPos="27.5">
        <route edges="top3D1 D1D0 D0right0 right0D0 D0D1"/>
        <stop parkingArea="parkingArea_D0D1_1_23" duration="1800"/>
    </vehicle>
    <person id="pedestrian_1_3568" depart="104">
        <ride from="top3D1" to="D0D1" lines="pedestrian_1_3568_tr"/>
        <walk edges="D0D1 D0right0"/>
    </person>
    <vehicle id="pedestrian_1_2727_tr" type="default" depart="triggered" departLane="best" arrivalPos="27.5">
        <route edges="left0A0 A0A1 A1B1"/>
        <stop parkingArea="parkingArea_A1B1_1_1" duration="1800"/>
    </vehicle>
    <person id="pedestrian_1_2727" depart="107">
        <ride from="left0A0" to="A1B1" lines="pedestrian_1_2727_tr"/>
        <walk edges="A1B1"/>
    </person>
    <vehicle id="pedestrian_1_184_tr" type="default" depart="triggered" departLane="best" arrivalPos="27.5">
        <route edges="B0B1 B1C1 C1C0 C0bottom2 bottom2C0 C0C1"/>
        <stop parkingArea="parkingArea_C0C1_1_21" duration="1800"/>
    </vehicle>
    <person id="pedestrian_1_184" depart="116">
        <ride from="B0B1" to="C0C1" lines="pedestrian_1_184_tr"/>
        <walk edges="C0C1"/>
    </person>
    <vehicle id="pedestrian_1_1515_tr" type="default" depart="triggered" departLane="best" arrivalPos="27.5">
        <route edges="C1D1 D1top3 top3D1 D1C1"/>
        <stop parkingArea="parkingArea_D1C1_1_5" duration="1800"/>
    </vehicle>
    <person id="pedestrian_1_1515" depart="116">
        <ride from="C1D1" to="D1C1" lines="pedestrian_1_1515_tr"/>
        <walk edges="D1C1"/>
    </person>
    <vehicle id="pedestrian_1_1055_tr" type="default" depart="triggered" departLane="best" arrivalPos="27.5">
        <route edges="D1C1 C1C0 C0B0 B0A0 A0A1"/>
        <stop parkingArea="parkingArea_A0A1_1_17" duration="1800"/>
    </vehicle>
    <person id="pedestrian_1_1055" depart="126">
        <ride from="D1C1" to="A0A1" lines="pedestrian_1_1055_tr"/>
        <walk edges="A0A1 A0left0"/>
    </person>
    <vehicle id="pedestrian_1_1202_tr" type="default" depart="triggered" departLane="best" arrivalPos="27.5">
        <route edges="A0B0 B0B1 B1C1 C1D1"/>
        <stop parkingArea="parkingArea_C1D1_1_3" duration="1800"/>
    </vehicle>
    <person id="pedestrian_1_1202" depart="126">
        <ride from="A0B0" to="C1D1" lines="pedestrian_1_1202_tr"/>
        <walk edges="C1D1 C1top2"/>
    </person>
    <vehicle id="pedestrian_1_323_tr" type="default" depart="triggered" departLane="best" arrivalPos="27.5">
        <route edges="left0A0 A0B0 B0C0 C0C1"/>
        <stop parkingArea="parkingArea_C0C1_1_21" duration="1800"/>
    </vehicle>
    <person id="pedestrian_1_323" depart="129">
        <ride from="left0A0" to="C0C1" lines="pedestrian_1_323_tr"/>
        <walk edges="C0C1"/>
    </person>
    <vehicle id="pedestrian_1_2795_tr" type="default" depart="triggered" departLane="best" arrivalPos="27.5">
        <route edges="C0C1 C1B1 B1A1 A1top0 top0A1 A1B1"/>
        <stop parkingArea="parkingArea_A1B1_1_1" duration="1800"/>
    </vehicle>
    <person id="pedestrian_1_2795" depart="129">
        <ride from="C0C1" to="A1B1" lines="pedestrian_1_2795_tr"/>
        <walk edges="A1B1 A1top0"/>
    </person>
    <vehicle id="pedestrian_1_2839_tr" type="default" depart="triggered" departLane="best" arrivalPos="27.5">
        <route edges="bottom0A0 A0B0 B0C0 C0D0 D0D1"/>
        <stop parkingArea="parkingArea_D0D1_1_23" duration="1800"/>
    </vehicle>
    <person id="pedestrian_1_2839" depart="132">
        <ride from="bottom0A0" to="D0D1" lines="pedestrian_1_2839_tr"/>
        <walk edges="D0D1"/>
    </person>
    <vehicle id="pedestrian_1_3179_tr" type="default" depart="triggered" departLane="best" arrivalPos="27.5">
        <route edges="B0B1 B1top1 top1B1 B1B0"/>
        <stop parkingArea="parkingArea_B1B0_1_18" duration="1800"/>
    </vehicle>
    <person id="pedestrian_1_3179" depart="132">
        <ride from="B0B1" to="B1B0" lines="pedestrian_1_3179_tr"/>
        <walk edges="B1B0"/>
    </person>
    <vehicle id="pedestrian_1_1324_tr" type="default" depart="triggered" departLane="best" arrivalPos="27.5">
        <route edges="A1A0 A0B0 B0B1 B1A1"/>
        <stop parkingArea="parkingArea_B1A1_1_15" duration="1800"/>
    </vehicle>
    <person id="pedestrian_1_1324" depart="134">
        <ride from="A1A0" to="B1A1" lines="pedestrian_1_1324_tr"/>
        <walk edges="B1A1"/>
    </person>
    <vehicle id="pedestrian_1_1524_tr" type="default" depart="triggered" departLane="best" arrivalPos="27.5">
        <route edges="D1D0 D0C0 C0C1 C1D1"/>
        <stop parkingArea="parkingArea_C1D1_1_3" duration="1800"/>
    </vehicle>
    <person id="pedestrian_1_1524" depart="136">
        <ride from="D1D0" to="C1D1" lines="pedestrian_1_1524_tr"/>
        <walk edges="C1D1 C1top2"/>
    </person>
    <vehicle id="pedestrian_1_1201_tr" type="default" depart="triggered" departLane="best" arrivalPos="27.5">
        <route edges="D1D0 D0C0 C0C1 C1B1 B1B0"/>
        <stop parkingArea="parkingArea_B1B0_1_18" duration="1800"/>
    </vehicle>
    <person id="pedestrian_1_1201" depart="138">
        <ride from="D1D0" to="B1B0" lines="pedestrian_1_1201_tr"/>
        <walk edges="B1B0"/>
    </person>
    <vehicle id="pedestrian_1_3145_tr" type="default" depart="triggered" departLane="best" arrivalPos="27.5">
        <route edges="B1A1 A1top0 top0A1 A1B1"/>
        <stop parkingArea="parkingArea_A1B1_1_1" duration="1800"/>
    </vehicle>
    <person id="pedestrian_1_3145" depart="138">
        <ride from="B1A1" to="A1B1" lines="pedestrian_1_3145_tr"/>
        <walk edges="A1B1"/>
    </person>
    <vehicle id="pedestrian_1_2139_tr" type="default" depart="triggered" departLane="best" arrivalPos="27.5">
        <route edges="B1C1 C1C0 C0D0 D0D1"/>
        <stop parkingArea="parkingArea_D0D1_1_23" duration="1800"/>
    </vehicle>
    <person id="pedestrian_1_2139" depart="139">
        <ride from="B1C1" to="D0D1" lines="pedestrian_1_2139_tr"/>
        <walk edges="D0D1 D0right0"/>
    </person>
    <vehicle id="pedestrian_1_2491_tr" type="default" depart="triggered" departLane="best" arrivalPos="27.5">
        <route edges="bottom3D0 D0D1 D1C1"/>
        <stop parkingArea="parkingArea_D1C1_1_5" duration="1800"/>
    </vehicle>
    <person id="pedestrian_1_2491" depart="140">
        <ride from="bottom3D0" to="D1C1" lines="pedestrian_1_2491_tr"/>
        <walk edges="D1C1 D1top3"/>
    </person>
    <vehicle id="pedestrian_1_1704_tr" type="default" depart="triggered" departLane="best" arrivalPos="27.5">
        <route edges="D0C0 C0C1 C1D1 D1top3 top3D1 D1C1"/>
        <stop parkingArea="parkingArea_D1C1_1_5" duration="1800"/>
    </vehicle>
    <person id="pedestrian_1_1704" depart="141">
        <ride from="D0C0" to="D1C1" lines="pedestrian_1_1704_tr"/>
        <walk edges="D1C1 D1top3"/>
    </person>
    <vehicle id="pedestrian_1_3360_tr" type="default" depart="triggered" departLane="best" arrivalPos="27.5">
        <route edges="right1D1 D1C1 C1B1 B1B0 B0C0"/>
        <stop parkingArea="parkingArea_B0C0_1_11" duration="1800"/>
    </vehicle>
    <person id="pedestrian_1_3360" depart="141">
        <ride from="right1D1" to="B0C0" lines="pedestrian_1_3360_tr"/>
        <walk edges="B0C0"/>
    </person>
    <vehicle id="pedestrian_1_138_tr" type="default" depart="triggered" departLane="best" arrivalPos="27.5">
        <route edges="bottom1B0 B0B1 B1C1"/>
        <stop parkingArea="parkingArea_B1C1_1_2" duration="1800"/>
    </vehicle>
    <person id="pedestrian_1_138" depart="149">
        <ride from="bottom1B0" to="B1C1" lines="pedestrian_1_138_tr"/>
        <walk edges="B1C1"/>
    </person>
    <vehicle id="pedestrian_1_1081_tr" type="default" depart="triggered" departLane="best" arrivalPos="27.5">
        <route edges="right1D1 D1D0 D0C0 C0B0"/>
        <stop parkingArea="parkingArea_C0B0_1_10" duration="1800"/>
    </vehicle>
    <person id="pedestrian_1_1081" depart="151">
        <ride from="right1D1" to="C0B0" lines="pedestrian_1_1081_tr"/>
        <walk edges="C0B0"/>
    </person>
    <vehicle id="pedestrian_1_101_tr" type="default" depart="triggered" departLane="best" arrivalPos="27.5">
        <route edges="D0D1 D1C1"/>
        <stop parkingArea="parkingArea_D1C1_1_5" duration="1800"/>
    </vehicle>
    <person id="pedestrian_1_101" depart="161">
        <ride from="D0D1" to="D1C1" lines="pedestrian_1_101_tr"/>
        <walk edges="D1C1"/>
    </person>
    <vehicle id="pedestrian_1_3304_tr" type="default" depart="triggered" departLane="best" arrivalPos="27.5">
        <route edges="bottom3D0 D0C0 C0B0 B0A0 A0A1"/>
        <stop parkingArea="parkingArea_A0A1_1_17" duration="1800"/>
    </vehicle>
    <person id="pedestrian_1_3304" depart="161">
        <ride from="bottom3D0" to="A0A1" lines="pedestrian_1_3304_tr"/>
        <walk edges="A0A1"/>
    </person>
    <vehicle id="pedestrian_1_3180_tr" type="default" depart="triggered" departLane="best" arrivalPos="27.5">
        <route edges="C0D0 D0bottom3 bottom3D0 D0C0 C0B0 B0A0 A0A1 A1B1"/>
        <stop parkingArea="parkingArea_A1B1_1_1" duration="1800"/>
    </vehicle>
    <person id="pedestrian_1_3180" depart="168">
        <ride from="C0D0" to="A1B1" lines="pedestrian_1_3180_tr"/>
        <walk edges="A1B1 A1top0"/>
    </person>
    <vehicle id="pedestrian_1_1658_tr" type="default" depart="triggered" departLane="best" arrivalPos="27.5">
        <route edges="left0A0 A0A1 A1B1 B1C1 C1D1"/>
        <stop parkingArea="parkingArea_C1D1_1_3" duration="1800"/>
    </vehicle>
    <person id="pedestrian_1_1658" depart="170">
        <ride from="left0A0" to="C1D1" lines="pedestrian_1_1658_tr"/>
        <walk edges="C1D1 C1top2"/>
    </person>
    <vehicle id="pedestrian_1_1957_tr" type="default" depart="triggered" departLane="best" arrivalPos="27.5">
        <route edges="C0B0 B0B1 B1C1 C1D1"/>
        <stop parkingArea="parkingArea_C1D1_1_3" duration="1800"/>
    </vehicle>
    <person id="pedestrian_1_1957" depart="175">
        <ride from="C0B0" to="C1D1" lines="pedestrian_1_1957_tr"/>
        <walk edges="C1D1 C1top2"/>
    </person>
    <vehicle id="pedestrian_1_67_tr" type="default" depart="triggered" departLane="best" arrivalPos="27.5">
        <route edges="B0A0 A0bottom0 bottom0A0 A0B0 B0C0 C0D0 D0D1"/>
        <stop parkingArea="parkingArea_D0D1_1_23" duration="1800"/>
    </vehicle>
    <person id="pedestrian_1_67" depart="178">
        <ride from="B0A0" to="D0D1" lines="pedestrian_1_67_tr"/>
        <walk edges="D0D1 D0right0"/>
    </person>
    <vehicle id="pedestrian_1_1414_tr" type="default" depart="triggered" departLane="best" arrivalPos="27.5">
        <route edges="C1D1 D1top3 top3D1 D1C1"/>
        <stop parkingArea="parkingArea_D1C1_1_5" duration="1800"/>
    </vehicle>
    <person id="pedestrian_1_1414" depart="178">
        <ride from="C1D1" to="D1C1" lines="pedestrian_1_1414_tr"/>
        <walk edges="D1C1 D1right1"/>
    </person>
    <vehicle id="pedestrian_1_2011_tr" type="default" depart="triggered" departLane="best" arrivalPos="27.5">
        <route edges="D1D0 D0C0 C0C1 C1B1 B1A1 A1A0"/>
        <stop parkingArea="parkingArea_A1A0_1_16" duration="1800"/>
    </vehicle>
    <person id="pedestrian_1_2011" depart="179">
        <ride from="D1D0" to="A1A0" lines="pedestrian_1_2011_tr"/>
        <walk edges="A1A0"/>
    </person>
    <vehicle id="pedestrian_1_2792_tr" type="default" depart="triggered" departLane="best" arrivalPos="27.5">
        <route edges="C1C0 C0B0 B0A0 A0A1"/>
        <stop parkingArea="parkingArea_A0A1_1_17" duration="1800"/>
    </vehicle>
    <person id="pedestrian_1_2792" depart="181">
        <ride from="C1C0" to="A0A1" lines="pedestrian_1_2792_tr"/>
        <walk edges="A0A1"/>
    </person>
    <vehicle id="pedestrian_1_3112_tr" type="default" depart="triggered" departLane="best" arrivalPos="27.5">
        <route edges="left0A0 A0B0 B0C0 C0D0 D0D1 D1C1"/>
        <stop parkingArea="parkingArea_D1C1_1_5" duration="1800"/>
    </vehicle>
    <person id="pedestrian_1_3112" depart="184">
        <ride from="left0A0" to="D1C1" lines="pedestrian_1_3112_tr"/>
        <walk edges="D1C1 D1top3"/>
    </person>
    <vehicle id="pedestrian_1_3581_tr" type="default" depart="triggered" departLane="best" arrivalPos="27.5">
        <route edges="top3D1 D1C1 C1B1 B1B0"/>
        <stop parkingArea="parkingArea_B1B0_1_18" duration="1800"/>
    </vehicle>
    <person id="pedestrian_1_3581" depart="184">
        <ride from="top3D1" to="B1B0" lines="pedestrian_1_3581_tr"/>
        <walk edges="B1B0"/>
    </person>
    <vehicle id="pedestrian_1_247_tr" type="default" depart="triggered" departLane="best" arrivalPos="27.5">
        <route edges="C0C1 C1B1 B1A1 A1A0 A0B0"/>
        <stop parkingArea="parkingArea_A0B0_1_9" duration="1800"/>
    </vehicle>
    <person id="pedestrian_1_247" depart="185">